
**** 03/30/25 22:31:24 **** PSpice 24.1.0 (22 October 2024) *** ID# 0 ********

 ** Profile: "Clip_top-Clip_top"  [ C:\Cadence\Pspice sim\hier_clip-PSpiceFiles\Clip_top\Clip_top.sim ] 


 ****     CIRCUIT DESCRIPTION


******************************************************************************




** Creating circuit file "Clip_top.cir" 
** WARNING: THIS AUTOMATICALLY GENERATED FILE MAY BE OVERWRITTEN BY SUBSEQUENT SIMULATIONS

*Libraries: 
* Profile Libraries :
* Local Libraries :
* From [PSPICE NETLIST] section of C:\Users\ROG\AppData\Roaming\SPB_Data\cdssetup\OrCAD_PSpice\24.1.0\PSpice.ini file:
.lib "nom.lib" 

*Analysis directives: 
.AC DEC 11 10 100 Meg
------------------$
ERROR(ORPSIM-16371): Extra text on line
.OPTIONS ADVCONV
.PROBE64 V(alias(*)) I(alias(*)) W(alias(*)) D(alias(*)) NOISE(alias(*)) 
.INC "..\Clip_top.net" 



**** INCLUDING Clip_top.net ****
* source HIER_CLIP
C_U1_C1         N00171 N00164  0.47u  
D_U1_D2         0 N00171 D1N3940 
D_U1_D1         N00171 U1_VCC D1N3940 
R_U1_R4         0 N00164  1k  
R_U1_R3         0 N00171  1k  
R_U1_R2         N00171 U1_VCC  1k  
V_U1_V1         U1_VCC 0 5Vdc
R_U1_R1         N00150 N00171  1k  
V_V1         N00150 0 DC 0Vdc AC 1Vac 
R_R1         0 N00164  10G  
R_R2         0 N00171  10G  

**** RESUMING Clip_top.cir ****
.END
