**** Analysis Setup ****

**** 04/10/25 19:46:41 **** PSpice 24.1.0 (22 October 2024) *** ID# 0 ********

 ** Profile: "SCHEMATIC1-pp_ac"  [ C:\Cadence\Pspice sim\pp_cascode-PSpiceFiles\SCHEMATIC1\pp_ac.sim ] 


 ****     CIRCUIT DESCRIPTION


******************************************************************************




** Creating circuit file "pp_ac.cir" 
** WARNING: THIS AUTOMATICALLY GENERATED FILE MAY BE OVERWRITTEN BY SUBSEQUENT SIMULATIONS

*Libraries: 
* Profile Libraries :
* Local Libraries :
.LIB "../../../pp_cascode-pspicefiles/pp_cascode.lib" 
* From [PSPICE NETLIST] section of C:\Users\ROG\AppData\Roaming\SPB_Data\cdssetup\OrCAD_PSpice\24.1.0\PSpice.ini file:
.lib "nom.lib" 

*Analysis directives: 
.AC DEC 100 1Meg 600Meg
.OPTIONS ADVCONV
.PROBE64 V(alias(*)) I(alias(*)) W(alias(*)) D(alias(*)) NOISE(alias(*)) 
.INC "..\SCHEMATIC1.net" 



**** INCLUDING SCHEMATIC1.net ****
* source PP_CASCODE
V_V1         N01866 0 12Vdc
V_V2         N01936 0 50
V_V3         N26542 0  AC 1
+SIN 0 1 5 0 0 0
D_D1         0 N22961 D1N755 
R_R2         N01866 N22961 R_R2 390 TC=0,0 
.model        R_R2 RES R=1     DEV/GAUSS 10%/10% TC1=0 TC2=0
C_C1         0 N22961 C_C1 3300u  TC=0,0 
.model        C_C1 CAP C=1     DEV 10%/10% TC1=0 TC2=0 VC1=0 VC2=0
R_R3         N01430 N22961 R_R3 1.1K TC=0,0 
.model        R_R3 RES R=1     DEV/GAUSS 10%/10% TC1=0 TC2=0
R_R1         OUT N39220 R_R1 300 TC=0,0 
.model        R_R1 RES R=1     DEV/GAUSS 10%/10% TC1=0 TC2=0
L_L1         N39220 N01936 L_L1 .22u  
.model        l_L1 IND L=1     DEV 0/0% TC1=0 TC2=0 IL1=0 IL2=0
R_R4         N26542 N43174 R_R4 75 TC=0,0 
.model        R_R4 RES R=1     DEV 0%/0% TC1=0 TC2=0
C_C2         N43174 N01430 C_C2 330u  TC=0,0 
.model        C_C2 CAP C=1     DEV 20/20% TC1=0 TC2=0 VC1=0 VC2=0
C_C3         0 N26201 C_C3 15p  TC=0,0 
.model        C_C3 CAP C=1     DEV 10%/10% TC1=0 TC2=0 VC1=0 VC2=0
R_R5         N01228 N26201 R_R5 68 TC=0,0 
.model        R_R5 RES R=1     DEV/GAUSS 10%/10% TC1=0 TC2=0
R_R6         0 N01430 R_R6 1.8K TC=0,0 
.model        R_R6 RES R=1     DEV/GAUSS 10%/10% TC1=0 TC2=0
R_R7         0 N01228 R_R7 33 TC=0,0 
.model        R_R7 RES R=1     DEV/GAUSS 10%/10% TC1=0 TC2=0
X_Q1         OUT N22961 N21518 awb2n3724 PARAMS:                               
+              
X_Q2         N21518 N01430 N01228 awb2n5179 PARAMS:                            
+                 

**** RESUMING pp_ac.cir ****
.END

**** 04/10/25 19:46:41 **** PSpice 24.1.0 (22 October 2024) *** ID# 0 ********

 ** Profile: "SCHEMATIC1-pp_ac"  [ C:\Cadence\Pspice sim\pp_cascode-PSpiceFiles\SCHEMATIC1\pp_ac.sim ] 


 ****     Diode MODEL PARAMETERS


******************************************************************************




               D1N755          
          IS    2.077000E-15 
         ISR    1.645000E-09 
          BV    7.5          
         IBV    2.5701       
         NBV     .39227      
        IBVL   40.222000E-06 
        NBVL     .25042      
          RS    2.467        
         CJO  104.000000E-12 
          VJ     .75         
           M     .5061       
        TBV1  533.330000E-06 


**** 04/10/25 19:46:41 **** PSpice 24.1.0 (22 October 2024) *** ID# 0 ********

 ** Profile: "SCHEMATIC1-pp_ac"  [ C:\Cadence\Pspice sim\pp_cascode-PSpiceFiles\SCHEMATIC1\pp_ac.sim ] 


 ****     BJT MODEL PARAMETERS


******************************************************************************




               X_Q1.model4     X_Q2.model4     
               NPN             NPN             
       LEVEL    1               1            
          IS   10.000000E-15    4.479000E-15 
          EG    1.11            1.11         
          BF  138              83            
          NF    1               1.07         
         VAF   65              24            
         IKF     .371            .1          
         ISE   29.400000E-12  347.100000E-12 
          NE    2.1335          3.66         
          BR    1               1            
          NR    1               1.07         
         VAR   50             500            
         IKR     .08                         
          NC                    1            
         ISS    0               0            
          RB    1              36            
         RBM    1              36            
          RE     .01             .5          
          RC     .42            1            
         CJE   63.340000E-12  910.000000E-15 
         VJE     .55             .661        
         MJE     .3546           .294        
         CJC   12.460000E-12  835.000000E-15 
         VJC     .55            1            
         MJC     .2977           .28         
        XCJC     .5              .5          
         CJS    0               0            
         VJS     .7              .7          
         MJS     .5              .5          
          TF  438.100000E-12  112.000000E-12 
         XTF    5                .12         
         VTF   10                            
         ITF    7                            
          TR   77.300000E-09    1.000000E-09 
         XTB    1.5815          2.3          
          KF    0               0            
          AF    1               1            
          CN    2.42            2.42         
           D     .87             .87         


**** 04/10/25 19:46:41 **** PSpice 24.1.0 (22 October 2024) *** ID# 0 ********

 ** Profile: "SCHEMATIC1-pp_ac"  [ C:\Cadence\Pspice sim\pp_cascode-PSpiceFiles\SCHEMATIC1\pp_ac.sim ] 


 ****     Resistor MODEL PARAMETERS


******************************************************************************




               R_R2            R_R3            R_R1            R_R4            
           R    1               1               1               1            


               R_R5            R_R6            R_R7            
           R    1               1               1            


**** 04/10/25 19:46:41 **** PSpice 24.1.0 (22 October 2024) *** ID# 0 ********

 ** Profile: "SCHEMATIC1-pp_ac"  [ C:\Cadence\Pspice sim\pp_cascode-PSpiceFiles\SCHEMATIC1\pp_ac.sim ] 


 ****     Capacitor MODEL PARAMETERS


******************************************************************************




               C_C1            C_C2            C_C3            
           C    1               1               1            


**** 04/10/25 19:46:41 **** PSpice 24.1.0 (22 October 2024) *** ID# 0 ********

 ** Profile: "SCHEMATIC1-pp_ac"  [ C:\Cadence\Pspice sim\pp_cascode-PSpiceFiles\SCHEMATIC1\pp_ac.sim ] 


 ****     Inductor MODEL PARAMETERS


******************************************************************************




               L_L1            
           L    1            

**** Param: R_R7.Value = 3.30000000000000
**** Param: R_R3.Value = 110

**** Command: doALL

**** 04/10/25 19:46:41 **** PSpice 24.1.0 (22 October 2024) *** ID# 0 ********

 ** Profile: "SCHEMATIC1-pp_ac"  [ C:\Cadence\Pspice sim\pp_cascode-PSpiceFiles\SCHEMATIC1\pp_ac.sim ] 


 ****     SMALL SIGNAL BIAS SOLUTION       TEMPERATURE =   27.000 DEG C

 ****     Parametric Sweep Run 1           


******************************************************************************



 NODE   VOLTAGE     NODE   VOLTAGE     NODE   VOLTAGE     NODE   VOLTAGE


(  OUT)    1.8988  (N01228)     .6056 (N01430)    1.8070 (N01866)   12.0000     

(N01936)   50.0000 (N21518)    1.7514 (N22961)    2.5736 (N26201)     .6056     

(N26542)    0.0000 (N39220)   50.0000 (N43174)    0.0000 




    VOLTAGE SOURCE CURRENTS
    NAME         CURRENT

    V_V1        -2.417E-02
    V_V2        -1.603E-01
    V_V3         0.000E+00

    TOTAL POWER DISSIPATION   8.31E+00  WATTS

**** Param: R_R7.Value = 3.30000000000000
**** Param: R_R3.Value = 1.21000000000000k

**** Command: doALL

**** 04/10/25 19:46:41 **** PSpice 24.1.0 (22 October 2024) *** ID# 0 ********

 ** Profile: "SCHEMATIC1-pp_ac"  [ C:\Cadence\Pspice sim\pp_cascode-PSpiceFiles\SCHEMATIC1\pp_ac.sim ] 


 ****     SMALL SIGNAL BIAS SOLUTION       TEMPERATURE =   27.000 DEG C

 ****     Parametric Sweep Run 2           


******************************************************************************



 NODE   VOLTAGE     NODE   VOLTAGE     NODE   VOLTAGE     NODE   VOLTAGE


(  OUT)    6.3651  (N01228)     .5192 (N01430)    1.6074 (N01866)   12.0000     

(N01936)   50.0000 (N21518)    6.2094 (N22961)    7.0160 (N26201)     .5192     

(N26542)    0.0000 (N39220)   50.0000 (N43174)    0.0000 




    VOLTAGE SOURCE CURRENTS
    NAME         CURRENT

    V_V1        -1.278E-02
    V_V2        -1.455E-01
    V_V3         0.000E+00

    TOTAL POWER DISSIPATION   7.43E+00  WATTS

**** Param: R_R7.Value = 3.30000000000000
**** Param: R_R3.Value = 2.31000000000000k

**** Command: doALL

**** 04/10/25 19:46:41 **** PSpice 24.1.0 (22 October 2024) *** ID# 0 ********

 ** Profile: "SCHEMATIC1-pp_ac"  [ C:\Cadence\Pspice sim\pp_cascode-PSpiceFiles\SCHEMATIC1\pp_ac.sim ] 


 ****     SMALL SIGNAL BIAS SOLUTION       TEMPERATURE =   27.000 DEG C

 ****     Parametric Sweep Run 3           


******************************************************************************



 NODE   VOLTAGE     NODE   VOLTAGE     NODE   VOLTAGE     NODE   VOLTAGE


(  OUT)   19.0080  (N01228)     .3500 (N01430)    1.3351 (N01866)   12.0000     

(N01936)   50.0000 (N21518)    6.6831 (N22961)    7.4617 (N26201)     .3500     

(N26542)    0.0000 (N39220)   50.0000 (N43174)    0.0000 




    VOLTAGE SOURCE CURRENTS
    NAME         CURRENT

    V_V1        -1.164E-02
    V_V2        -1.033E-01
    V_V3         0.000E+00

    TOTAL POWER DISSIPATION   5.31E+00  WATTS

**** Param: R_R7.Value = 3.30000000000000
**** Param: R_R3.Value = 3.41000000000000k

**** Command: doALL

**** 04/10/25 19:46:41 **** PSpice 24.1.0 (22 October 2024) *** ID# 0 ********

 ** Profile: "SCHEMATIC1-pp_ac"  [ C:\Cadence\Pspice sim\pp_cascode-PSpiceFiles\SCHEMATIC1\pp_ac.sim ] 


 ****     SMALL SIGNAL BIAS SOLUTION       TEMPERATURE =   27.000 DEG C

 ****     Parametric Sweep Run 4           


******************************************************************************



 NODE   VOLTAGE     NODE   VOLTAGE     NODE   VOLTAGE     NODE   VOLTAGE


(  OUT)   27.6970  (N01228)     .2509 (N01430)    1.1818 (N01866)   12.0000     

(N01936)   50.0000 (N21518)    6.7010 (N22961)    7.4658 (N26201)     .2509     

(N26542)    0.0000 (N39220)   50.0000 (N43174)    0.0000 




    VOLTAGE SOURCE CURRENTS
    NAME         CURRENT

    V_V1        -1.163E-02
    V_V2        -7.434E-02
    V_V3         0.000E+00

    TOTAL POWER DISSIPATION   3.86E+00  WATTS

**** Param: R_R7.Value = 3.30000000000000
**** Param: R_R3.Value = 4.51000000000000k

**** Command: doALL

**** 04/10/25 19:46:41 **** PSpice 24.1.0 (22 October 2024) *** ID# 0 ********

 ** Profile: "SCHEMATIC1-pp_ac"  [ C:\Cadence\Pspice sim\pp_cascode-PSpiceFiles\SCHEMATIC1\pp_ac.sim ] 


 ****     SMALL SIGNAL BIAS SOLUTION       TEMPERATURE =   27.000 DEG C

 ****     Parametric Sweep Run 5           


******************************************************************************



 NODE   VOLTAGE     NODE   VOLTAGE     NODE   VOLTAGE     NODE   VOLTAGE


(  OUT)   33.1210  (N01228)     .1895 (N01430)    1.0870 (N01866)   12.0000     

(N01936)   50.0000 (N21518)    6.7132 (N22961)    7.4679 (N26201)     .1895     

(N26542)    0.0000 (N39220)   50.0000 (N43174)    0.0000 




    VOLTAGE SOURCE CURRENTS
    NAME         CURRENT

    V_V1        -1.162E-02
    V_V2        -5.626E-02
    V_V3         0.000E+00

    TOTAL POWER DISSIPATION   2.95E+00  WATTS

**** Param: R_R7.Value = 3.30000000000000
**** Param: R_R3.Value = 5.61000000000000k

**** Command: doALL

**** 04/10/25 19:46:41 **** PSpice 24.1.0 (22 October 2024) *** ID# 0 ********

 ** Profile: "SCHEMATIC1-pp_ac"  [ C:\Cadence\Pspice sim\pp_cascode-PSpiceFiles\SCHEMATIC1\pp_ac.sim ] 


 ****     SMALL SIGNAL BIAS SOLUTION       TEMPERATURE =   27.000 DEG C

 ****     Parametric Sweep Run 6           


******************************************************************************



 NODE   VOLTAGE     NODE   VOLTAGE     NODE   VOLTAGE     NODE   VOLTAGE


(  OUT)   36.9100  (N01228)     .1468 (N01430)    1.0204 (N01866)   12.0000     

(N01936)   50.0000 (N21518)    6.7230 (N22961)    7.4691 (N26201)     .1468     

(N26542)    0.0000 (N39220)   50.0000 (N43174)    0.0000 




    VOLTAGE SOURCE CURRENTS
    NAME         CURRENT

    V_V1        -1.162E-02
    V_V2        -4.363E-02
    V_V3         0.000E+00

    TOTAL POWER DISSIPATION   2.32E+00  WATTS

**** Param: R_R7.Value = 3.30000000000000
**** Param: R_R3.Value = 6.71000000000000k

**** Command: doALL

**** 04/10/25 19:46:41 **** PSpice 24.1.0 (22 October 2024) *** ID# 0 ********

 ** Profile: "SCHEMATIC1-pp_ac"  [ C:\Cadence\Pspice sim\pp_cascode-PSpiceFiles\SCHEMATIC1\pp_ac.sim ] 


 ****     SMALL SIGNAL BIAS SOLUTION       TEMPERATURE =   27.000 DEG C

 ****     Parametric Sweep Run 7           


******************************************************************************



 NODE   VOLTAGE     NODE   VOLTAGE     NODE   VOLTAGE     NODE   VOLTAGE


(  OUT)   39.7400  (N01228)     .1149 (N01430)     .9698 (N01866)   12.0000     

(N01936)   50.0000 (N21518)    6.7315 (N22961)    7.4699 (N26201)     .1149     

(N26542)    0.0000 (N39220)   50.0000 (N43174)    0.0000 




    VOLTAGE SOURCE CURRENTS
    NAME         CURRENT

    V_V1        -1.162E-02
    V_V2        -3.420E-02
    V_V3         0.000E+00

    TOTAL POWER DISSIPATION   1.85E+00  WATTS

**** Param: R_R7.Value = 3.30000000000000
**** Param: R_R3.Value = 7.81000000000000k

**** Command: doALL

**** 04/10/25 19:46:41 **** PSpice 24.1.0 (22 October 2024) *** ID# 0 ********

 ** Profile: "SCHEMATIC1-pp_ac"  [ C:\Cadence\Pspice sim\pp_cascode-PSpiceFiles\SCHEMATIC1\pp_ac.sim ] 


 ****     SMALL SIGNAL BIAS SOLUTION       TEMPERATURE =   27.000 DEG C

 ****     Parametric Sweep Run 8           


******************************************************************************



 NODE   VOLTAGE     NODE   VOLTAGE     NODE   VOLTAGE     NODE   VOLTAGE


(  OUT)   41.9470  (N01228)     .0901 (N01430)     .9293 (N01866)   12.0000     

(N01936)   50.0000 (N21518)    6.7395 (N22961)    7.4705 (N26201)     .0901     

(N26542)    0.0000 (N39220)   50.0000 (N43174)    0.0000 




    VOLTAGE SOURCE CURRENTS
    NAME         CURRENT

    V_V1        -1.161E-02
    V_V2        -2.684E-02
    V_V3         0.000E+00

    TOTAL POWER DISSIPATION   1.48E+00  WATTS

**** Param: R_R7.Value = 3.30000000000000
**** Param: R_R3.Value = 8.91000000000000k

**** Command: doALL

**** 04/10/25 19:46:41 **** PSpice 24.1.0 (22 October 2024) *** ID# 0 ********

 ** Profile: "SCHEMATIC1-pp_ac"  [ C:\Cadence\Pspice sim\pp_cascode-PSpiceFiles\SCHEMATIC1\pp_ac.sim ] 


 ****     SMALL SIGNAL BIAS SOLUTION       TEMPERATURE =   27.000 DEG C

 ****     Parametric Sweep Run 9           


******************************************************************************



 NODE   VOLTAGE     NODE   VOLTAGE     NODE   VOLTAGE     NODE   VOLTAGE


(  OUT)   43.7210  (N01228)     .0702 (N01430)     .8954 (N01866)   12.0000     

(N01936)   50.0000 (N21518)    6.7472 (N22961)    7.4710 (N26201)     .0702     

(N26542)    0.0000 (N39220)   50.0000 (N43174)    0.0000 




    VOLTAGE SOURCE CURRENTS
    NAME         CURRENT

    V_V1        -1.161E-02
    V_V2        -2.093E-02
    V_V3         0.000E+00

    TOTAL POWER DISSIPATION   1.19E+00  WATTS

**** Param: R_R7.Value = 3.30000000000000
**** Param: R_R3.Value = 10.01000000000000k

**** Command: doALL

**** 04/10/25 19:46:41 **** PSpice 24.1.0 (22 October 2024) *** ID# 0 ********

 ** Profile: "SCHEMATIC1-pp_ac"  [ C:\Cadence\Pspice sim\pp_cascode-PSpiceFiles\SCHEMATIC1\pp_ac.sim ] 


 ****     SMALL SIGNAL BIAS SOLUTION       TEMPERATURE =   27.000 DEG C

 ****     Parametric Sweep Run 10          


******************************************************************************



 NODE   VOLTAGE     NODE   VOLTAGE     NODE   VOLTAGE     NODE   VOLTAGE


(  OUT)   45.1750  (N01228)     .0540 (N01430)     .8661 (N01866)   12.0000     

(N01936)   50.0000 (N21518)    6.7550 (N22961)    7.4713 (N26201)     .0540     

(N26542)    0.0000 (N39220)   50.0000 (N43174)    0.0000 




    VOLTAGE SOURCE CURRENTS
    NAME         CURRENT

    V_V1        -1.161E-02
    V_V2        -1.608E-02
    V_V3         0.000E+00

    TOTAL POWER DISSIPATION   9.44E-01  WATTS

**** Param: R_R7.Value = 36.30000000000000
**** Param: R_R3.Value = 110

**** Command: doALL

**** 04/10/25 19:46:41 **** PSpice 24.1.0 (22 October 2024) *** ID# 0 ********

 ** Profile: "SCHEMATIC1-pp_ac"  [ C:\Cadence\Pspice sim\pp_cascode-PSpiceFiles\SCHEMATIC1\pp_ac.sim ] 


 ****     SMALL SIGNAL BIAS SOLUTION       TEMPERATURE =   27.000 DEG C

 ****     Parametric Sweep Run 11          


******************************************************************************



 NODE   VOLTAGE     NODE   VOLTAGE     NODE   VOLTAGE     NODE   VOLTAGE


(  OUT)    6.8670  (N01228)    5.4422 (N01430)    6.5579 (N01866)   12.0000     

(N01936)   50.0000 (N21518)    6.6353 (N22961)    7.4317 (N26201)    5.4422     

(N26542)    0.0000 (N39220)   50.0000 (N43174)    0.0000 




    VOLTAGE SOURCE CURRENTS
    NAME         CURRENT

    V_V1        -1.171E-02
    V_V2        -1.438E-01
    V_V3         0.000E+00

    TOTAL POWER DISSIPATION   7.33E+00  WATTS

**** Param: R_R7.Value = 36.30000000000000
**** Param: R_R3.Value = 1.21000000000000k

**** Command: doALL

**** 04/10/25 19:46:41 **** PSpice 24.1.0 (22 October 2024) *** ID# 0 ********

 ** Profile: "SCHEMATIC1-pp_ac"  [ C:\Cadence\Pspice sim\pp_cascode-PSpiceFiles\SCHEMATIC1\pp_ac.sim ] 


 ****     SMALL SIGNAL BIAS SOLUTION       TEMPERATURE =   27.000 DEG C

 ****     Parametric Sweep Run 12          


******************************************************************************



 NODE   VOLTAGE     NODE   VOLTAGE     NODE   VOLTAGE     NODE   VOLTAGE


(  OUT)   28.7840  (N01228)    2.6296 (N01430)    3.5620 (N01866)   12.0000     

(N01936)   50.0000 (N21518)    6.6980 (N22961)    7.4609 (N26201)    2.6296     

(N26542)    0.0000 (N39220)   50.0000 (N43174)    0.0000 




    VOLTAGE SOURCE CURRENTS
    NAME         CURRENT

    V_V1        -1.164E-02
    V_V2        -7.072E-02
    V_V3         0.000E+00

    TOTAL POWER DISSIPATION   3.68E+00  WATTS

**** Param: R_R7.Value = 36.30000000000000
**** Param: R_R3.Value = 2.31000000000000k

**** Command: doALL

**** 04/10/25 19:46:41 **** PSpice 24.1.0 (22 October 2024) *** ID# 0 ********

 ** Profile: "SCHEMATIC1-pp_ac"  [ C:\Cadence\Pspice sim\pp_cascode-PSpiceFiles\SCHEMATIC1\pp_ac.sim ] 


 ****     SMALL SIGNAL BIAS SOLUTION       TEMPERATURE =   27.000 DEG C

 ****     Parametric Sweep Run 13          


******************************************************************************



 NODE   VOLTAGE     NODE   VOLTAGE     NODE   VOLTAGE     NODE   VOLTAGE


(  OUT)   36.1570  (N01228)    1.7093 (N01430)    2.5913 (N01866)   12.0000     

(N01936)   50.0000 (N21518)    6.7178 (N22961)    7.4657 (N26201)    1.7093     

(N26542)    0.0000 (N39220)   50.0000 (N43174)    0.0000 




    VOLTAGE SOURCE CURRENTS
    NAME         CURRENT

    V_V1        -1.163E-02
    V_V2        -4.614E-02
    V_V3         0.000E+00

    TOTAL POWER DISSIPATION   2.45E+00  WATTS

**** Param: R_R7.Value = 36.30000000000000
**** Param: R_R3.Value = 3.41000000000000k

**** Command: doALL

**** 04/10/25 19:46:41 **** PSpice 24.1.0 (22 October 2024) *** ID# 0 ********

 ** Profile: "SCHEMATIC1-pp_ac"  [ C:\Cadence\Pspice sim\pp_cascode-PSpiceFiles\SCHEMATIC1\pp_ac.sim ] 


 ****     SMALL SIGNAL BIAS SOLUTION       TEMPERATURE =   27.000 DEG C

 ****     Parametric Sweep Run 14          


******************************************************************************



 NODE   VOLTAGE     NODE   VOLTAGE     NODE   VOLTAGE     NODE   VOLTAGE


(  OUT)   40.1130  (N01228)    1.2188 (N01430)    2.0731 (N01866)   12.0000     

(N01936)   50.0000 (N21518)    6.7306 (N22961)    7.4678 (N26201)    1.2188     

(N26542)    0.0000 (N39220)   50.0000 (N43174)    0.0000 




    VOLTAGE SOURCE CURRENTS
    NAME         CURRENT

    V_V1        -1.162E-02
    V_V2        -3.296E-02
    V_V3         0.000E+00

    TOTAL POWER DISSIPATION   1.79E+00  WATTS

**** Param: R_R7.Value = 36.30000000000000
**** Param: R_R3.Value = 4.51000000000000k

**** Command: doALL

**** 04/10/25 19:46:41 **** PSpice 24.1.0 (22 October 2024) *** ID# 0 ********

 ** Profile: "SCHEMATIC1-pp_ac"  [ C:\Cadence\Pspice sim\pp_cascode-PSpiceFiles\SCHEMATIC1\pp_ac.sim ] 


 ****     SMALL SIGNAL BIAS SOLUTION       TEMPERATURE =   27.000 DEG C

 ****     Parametric Sweep Run 15          


******************************************************************************



 NODE   VOLTAGE     NODE   VOLTAGE     NODE   VOLTAGE     NODE   VOLTAGE


(  OUT)   42.6150  (N01228)     .9095 (N01430)    1.7448 (N01866)   12.0000     

(N01936)   50.0000 (N21518)    6.7406 (N22961)    7.4691 (N26201)     .9095     

(N26542)    0.0000 (N39220)   50.0000 (N43174)    0.0000 




    VOLTAGE SOURCE CURRENTS
    NAME         CURRENT

    V_V1        -1.162E-02
    V_V2        -2.462E-02
    V_V3         0.000E+00

    TOTAL POWER DISSIPATION   1.37E+00  WATTS

**** Param: R_R7.Value = 36.30000000000000
**** Param: R_R3.Value = 5.61000000000000k

**** Command: doALL

**** 04/10/25 19:46:41 **** PSpice 24.1.0 (22 October 2024) *** ID# 0 ********

 ** Profile: "SCHEMATIC1-pp_ac"  [ C:\Cadence\Pspice sim\pp_cascode-PSpiceFiles\SCHEMATIC1\pp_ac.sim ] 


 ****     SMALL SIGNAL BIAS SOLUTION       TEMPERATURE =   27.000 DEG C

 ****     Parametric Sweep Run 16          


******************************************************************************



 NODE   VOLTAGE     NODE   VOLTAGE     NODE   VOLTAGE     NODE   VOLTAGE


(  OUT)   44.3460  (N01228)     .6958 (N01430)    1.5165 (N01866)   12.0000     

(N01936)   50.0000 (N21518)    6.7491 (N22961)    7.4699 (N26201)     .6958     

(N26542)    0.0000 (N39220)   50.0000 (N43174)    0.0000 




    VOLTAGE SOURCE CURRENTS
    NAME         CURRENT

    V_V1        -1.162E-02
    V_V2        -1.885E-02
    V_V3         0.000E+00

    TOTAL POWER DISSIPATION   1.08E+00  WATTS

**** Param: R_R7.Value = 36.30000000000000
**** Param: R_R3.Value = 6.71000000000000k

**** Command: doALL

**** 04/10/25 19:46:41 **** PSpice 24.1.0 (22 October 2024) *** ID# 0 ********

 ** Profile: "SCHEMATIC1-pp_ac"  [ C:\Cadence\Pspice sim\pp_cascode-PSpiceFiles\SCHEMATIC1\pp_ac.sim ] 


 ****     SMALL SIGNAL BIAS SOLUTION       TEMPERATURE =   27.000 DEG C

 ****     Parametric Sweep Run 17          


******************************************************************************



 NODE   VOLTAGE     NODE   VOLTAGE     NODE   VOLTAGE     NODE   VOLTAGE


(  OUT)   45.6150  (N01228)     .5394 (N01430)    1.3479 (N01866)   12.0000     

(N01936)   50.0000 (N21518)    6.7569 (N22961)    7.4705 (N26201)     .5394     

(N26542)    0.0000 (N39220)   50.0000 (N43174)    0.0000 




    VOLTAGE SOURCE CURRENTS
    NAME         CURRENT

    V_V1        -1.161E-02
    V_V2        -1.462E-02
    V_V3         0.000E+00

    TOTAL POWER DISSIPATION   8.70E-01  WATTS

**** Param: R_R7.Value = 36.30000000000000
**** Param: R_R3.Value = 7.81000000000000k

**** Command: doALL

**** 04/10/25 19:46:41 **** PSpice 24.1.0 (22 October 2024) *** ID# 0 ********

 ** Profile: "SCHEMATIC1-pp_ac"  [ C:\Cadence\Pspice sim\pp_cascode-PSpiceFiles\SCHEMATIC1\pp_ac.sim ] 


 ****     SMALL SIGNAL BIAS SOLUTION       TEMPERATURE =   27.000 DEG C

 ****     Parametric Sweep Run 18          


******************************************************************************



 NODE   VOLTAGE     NODE   VOLTAGE     NODE   VOLTAGE     NODE   VOLTAGE


(  OUT)   46.5840  (N01228)     .4201 (N01430)    1.2178 (N01866)   12.0000     

(N01936)   50.0000 (N21518)    6.7642 (N22961)    7.4710 (N26201)     .4201     

(N26542)    0.0000 (N39220)   50.0000 (N43174)    0.0000 




    VOLTAGE SOURCE CURRENTS
    NAME         CURRENT

    V_V1        -1.161E-02
    V_V2        -1.139E-02
    V_V3         0.000E+00

    TOTAL POWER DISSIPATION   7.09E-01  WATTS

**** Param: R_R7.Value = 36.30000000000000
**** Param: R_R3.Value = 8.91000000000000k

**** Command: doALL

**** 04/10/25 19:46:41 **** PSpice 24.1.0 (22 October 2024) *** ID# 0 ********

 ** Profile: "SCHEMATIC1-pp_ac"  [ C:\Cadence\Pspice sim\pp_cascode-PSpiceFiles\SCHEMATIC1\pp_ac.sim ] 


 ****     SMALL SIGNAL BIAS SOLUTION       TEMPERATURE =   27.000 DEG C

 ****     Parametric Sweep Run 19          


******************************************************************************



 NODE   VOLTAGE     NODE   VOLTAGE     NODE   VOLTAGE     NODE   VOLTAGE


(  OUT)   47.3450  (N01228)     .3265 (N01430)    1.1142 (N01866)   12.0000     

(N01936)   50.0000 (N21518)    6.7714 (N22961)    7.4713 (N26201)     .3265     

(N26542)    0.0000 (N39220)   50.0000 (N43174)    0.0000 




    VOLTAGE SOURCE CURRENTS
    NAME         CURRENT

    V_V1        -1.161E-02
    V_V2        -8.850E-03
    V_V3         0.000E+00

    TOTAL POWER DISSIPATION   5.82E-01  WATTS

**** Param: R_R7.Value = 36.30000000000000
**** Param: R_R3.Value = 10.01000000000000k

**** Command: doALL

**** 04/10/25 19:46:41 **** PSpice 24.1.0 (22 October 2024) *** ID# 0 ********

 ** Profile: "SCHEMATIC1-pp_ac"  [ C:\Cadence\Pspice sim\pp_cascode-PSpiceFiles\SCHEMATIC1\pp_ac.sim ] 


 ****     SMALL SIGNAL BIAS SOLUTION       TEMPERATURE =   27.000 DEG C

 ****     Parametric Sweep Run 20          


******************************************************************************



 NODE   VOLTAGE     NODE   VOLTAGE     NODE   VOLTAGE     NODE   VOLTAGE


(  OUT)   47.9550  (N01228)     .2514 (N01430)    1.0295 (N01866)   12.0000     

(N01936)   50.0000 (N21518)    6.7787 (N22961)    7.4716 (N26201)     .2514     

(N26542)    0.0000 (N39220)   50.0000 (N43174)    0.0000 




    VOLTAGE SOURCE CURRENTS
    NAME         CURRENT

    V_V1        -1.161E-02
    V_V2        -6.815E-03
    V_V3         0.000E+00

    TOTAL POWER DISSIPATION   4.80E-01  WATTS

**** Param: R_R7.Value = 69.30000000000000
**** Param: R_R3.Value = 110

**** Command: doALL

**** 04/10/25 19:46:41 **** PSpice 24.1.0 (22 October 2024) *** ID# 0 ********

 ** Profile: "SCHEMATIC1-pp_ac"  [ C:\Cadence\Pspice sim\pp_cascode-PSpiceFiles\SCHEMATIC1\pp_ac.sim ] 


 ****     SMALL SIGNAL BIAS SOLUTION       TEMPERATURE =   27.000 DEG C

 ****     Parametric Sweep Run 21          


******************************************************************************



 NODE   VOLTAGE     NODE   VOLTAGE     NODE   VOLTAGE     NODE   VOLTAGE


(  OUT)   25.3660  (N01228)    5.8592 (N01430)    6.8304 (N01866)   12.0000     

(N01936)   50.0000 (N21518)    6.6822 (N22961)    7.4509 (N26201)    5.8592     

(N26542)    0.0000 (N39220)   50.0000 (N43174)    0.0000 




    VOLTAGE SOURCE CURRENTS
    NAME         CURRENT

    V_V1        -1.166E-02
    V_V2        -8.211E-02
    V_V3         0.000E+00

    TOTAL POWER DISSIPATION   4.25E+00  WATTS

**** Param: R_R7.Value = 69.30000000000000
**** Param: R_R3.Value = 1.21000000000000k

**** Command: doALL

**** 04/10/25 19:46:41 **** PSpice 24.1.0 (22 October 2024) *** ID# 0 ********

 ** Profile: "SCHEMATIC1-pp_ac"  [ C:\Cadence\Pspice sim\pp_cascode-PSpiceFiles\SCHEMATIC1\pp_ac.sim ] 


 ****     SMALL SIGNAL BIAS SOLUTION       TEMPERATURE =   27.000 DEG C

 ****     Parametric Sweep Run 22          


******************************************************************************



 NODE   VOLTAGE     NODE   VOLTAGE     NODE   VOLTAGE     NODE   VOLTAGE


(  OUT)   36.8660  (N01228)    3.0983 (N01430)    3.9790 (N01866)   12.0000     

(N01936)   50.0000 (N21518)    6.7168 (N22961)    7.4630 (N26201)    3.0983     

(N26542)    0.0000 (N39220)   50.0000 (N43174)    0.0000 




    VOLTAGE SOURCE CURRENTS
    NAME         CURRENT

    V_V1        -1.163E-02
    V_V2        -4.378E-02
    V_V3         0.000E+00

    TOTAL POWER DISSIPATION   2.33E+00  WATTS

**** Param: R_R7.Value = 69.30000000000000
**** Param: R_R3.Value = 2.31000000000000k

**** Command: doALL

**** 04/10/25 19:46:41 **** PSpice 24.1.0 (22 October 2024) *** ID# 0 ********

 ** Profile: "SCHEMATIC1-pp_ac"  [ C:\Cadence\Pspice sim\pp_cascode-PSpiceFiles\SCHEMATIC1\pp_ac.sim ] 


 ****     SMALL SIGNAL BIAS SOLUTION       TEMPERATURE =   27.000 DEG C

 ****     Parametric Sweep Run 23          


******************************************************************************



 NODE   VOLTAGE     NODE   VOLTAGE     NODE   VOLTAGE     NODE   VOLTAGE


(  OUT)   41.3370  (N01228)    2.0388 (N01430)    2.8857 (N01866)   12.0000     

(N01936)   50.0000 (N21518)    6.7333 (N22961)    7.4665 (N26201)    2.0388     

(N26542)    0.0000 (N39220)   50.0000 (N43174)    0.0000 




    VOLTAGE SOURCE CURRENTS
    NAME         CURRENT

    V_V1        -1.162E-02
    V_V2        -2.888E-02
    V_V3         0.000E+00

    TOTAL POWER DISSIPATION   1.58E+00  WATTS

**** Param: R_R7.Value = 69.30000000000000
**** Param: R_R3.Value = 3.41000000000000k

**** Command: doALL

**** 04/10/25 19:46:41 **** PSpice 24.1.0 (22 October 2024) *** ID# 0 ********

 ** Profile: "SCHEMATIC1-pp_ac"  [ C:\Cadence\Pspice sim\pp_cascode-PSpiceFiles\SCHEMATIC1\pp_ac.sim ] 


 ****     SMALL SIGNAL BIAS SOLUTION       TEMPERATURE =   27.000 DEG C

 ****     Parametric Sweep Run 24          


******************************************************************************



 NODE   VOLTAGE     NODE   VOLTAGE     NODE   VOLTAGE     NODE   VOLTAGE


(  OUT)   43.7960  (N01228)    1.4585 (N01430)    2.2850 (N01866)   12.0000     

(N01936)   50.0000 (N21518)    6.7449 (N22961)    7.4683 (N26201)    1.4585     

(N26542)    0.0000 (N39220)   50.0000 (N43174)    0.0000 




    VOLTAGE SOURCE CURRENTS
    NAME         CURRENT

    V_V1        -1.162E-02
    V_V2        -2.068E-02
    V_V3         0.000E+00

    TOTAL POWER DISSIPATION   1.17E+00  WATTS

**** Param: R_R7.Value = 69.30000000000000
**** Param: R_R3.Value = 4.51000000000000k

**** Command: doALL

**** 04/10/25 19:46:41 **** PSpice 24.1.0 (22 October 2024) *** ID# 0 ********

 ** Profile: "SCHEMATIC1-pp_ac"  [ C:\Cadence\Pspice sim\pp_cascode-PSpiceFiles\SCHEMATIC1\pp_ac.sim ] 


 ****     SMALL SIGNAL BIAS SOLUTION       TEMPERATURE =   27.000 DEG C

 ****     Parametric Sweep Run 25          


******************************************************************************



 NODE   VOLTAGE     NODE   VOLTAGE     NODE   VOLTAGE     NODE   VOLTAGE


(  OUT)   45.3600  (N01228)    1.0901 (N01430)    1.9018 (N01866)   12.0000     

(N01936)   50.0000 (N21518)    6.7542 (N22961)    7.4694 (N26201)    1.0901     

(N26542)    0.0000 (N39220)   50.0000 (N43174)    0.0000 




    VOLTAGE SOURCE CURRENTS
    NAME         CURRENT

    V_V1        -1.162E-02
    V_V2        -1.547E-02
    V_V3         0.000E+00

    TOTAL POWER DISSIPATION   9.13E-01  WATTS

**** Param: R_R7.Value = 69.30000000000000
**** Param: R_R3.Value = 5.61000000000000k

**** Command: doALL

**** 04/10/25 19:46:41 **** PSpice 24.1.0 (22 October 2024) *** ID# 0 ********

 ** Profile: "SCHEMATIC1-pp_ac"  [ C:\Cadence\Pspice sim\pp_cascode-PSpiceFiles\SCHEMATIC1\pp_ac.sim ] 


 ****     SMALL SIGNAL BIAS SOLUTION       TEMPERATURE =   27.000 DEG C

 ****     Parametric Sweep Run 26          


******************************************************************************



 NODE   VOLTAGE     NODE   VOLTAGE     NODE   VOLTAGE     NODE   VOLTAGE


(  OUT)   46.4430  (N01228)     .8354 (N01430)    1.6352 (N01866)   12.0000     

(N01936)   50.0000 (N21518)    6.7623 (N22961)    7.4701 (N26201)     .8354     

(N26542)    0.0000 (N39220)   50.0000 (N43174)    0.0000 




    VOLTAGE SOURCE CURRENTS
    NAME         CURRENT

    V_V1        -1.162E-02
    V_V2        -1.186E-02
    V_V3         0.000E+00

    TOTAL POWER DISSIPATION   7.32E-01  WATTS

**** Param: R_R7.Value = 69.30000000000000
**** Param: R_R3.Value = 6.71000000000000k

**** Command: doALL

**** 04/10/25 19:46:41 **** PSpice 24.1.0 (22 October 2024) *** ID# 0 ********

 ** Profile: "SCHEMATIC1-pp_ac"  [ C:\Cadence\Pspice sim\pp_cascode-PSpiceFiles\SCHEMATIC1\pp_ac.sim ] 


 ****     SMALL SIGNAL BIAS SOLUTION       TEMPERATURE =   27.000 DEG C

 ****     Parametric Sweep Run 27          


******************************************************************************



 NODE   VOLTAGE     NODE   VOLTAGE     NODE   VOLTAGE     NODE   VOLTAGE


(  OUT)   47.2360  (N01228)     .6490 (N01430)    1.4386 (N01866)   12.0000     

(N01936)   50.0000 (N21518)    6.7697 (N22961)    7.4707 (N26201)     .6490     

(N26542)    0.0000 (N39220)   50.0000 (N43174)    0.0000 




    VOLTAGE SOURCE CURRENTS
    NAME         CURRENT

    V_V1        -1.161E-02
    V_V2        -9.213E-03
    V_V3         0.000E+00

    TOTAL POWER DISSIPATION   6.00E-01  WATTS

**** Param: R_R7.Value = 69.30000000000000
**** Param: R_R3.Value = 7.81000000000000k

**** Command: doALL

**** 04/10/25 19:46:41 **** PSpice 24.1.0 (22 October 2024) *** ID# 0 ********

 ** Profile: "SCHEMATIC1-pp_ac"  [ C:\Cadence\Pspice sim\pp_cascode-PSpiceFiles\SCHEMATIC1\pp_ac.sim ] 


 ****     SMALL SIGNAL BIAS SOLUTION       TEMPERATURE =   27.000 DEG C

 ****     Parametric Sweep Run 28          


******************************************************************************



 NODE   VOLTAGE     NODE   VOLTAGE     NODE   VOLTAGE     NODE   VOLTAGE


(  OUT)   47.8400  (N01228)     .5071 (N01430)    1.2874 (N01866)   12.0000     

(N01936)   50.0000 (N21518)    6.7767 (N22961)    7.4711 (N26201)     .5071     

(N26542)    0.0000 (N39220)   50.0000 (N43174)    0.0000 




    VOLTAGE SOURCE CURRENTS
    NAME         CURRENT

    V_V1        -1.161E-02
    V_V2        -7.200E-03
    V_V3         0.000E+00

    TOTAL POWER DISSIPATION   4.99E-01  WATTS

**** Param: R_R7.Value = 69.30000000000000
**** Param: R_R3.Value = 8.91000000000000k

**** Command: doALL

**** 04/10/25 19:46:41 **** PSpice 24.1.0 (22 October 2024) *** ID# 0 ********

 ** Profile: "SCHEMATIC1-pp_ac"  [ C:\Cadence\Pspice sim\pp_cascode-PSpiceFiles\SCHEMATIC1\pp_ac.sim ] 


 ****     SMALL SIGNAL BIAS SOLUTION       TEMPERATURE =   27.000 DEG C

 ****     Parametric Sweep Run 29          


******************************************************************************



 NODE   VOLTAGE     NODE   VOLTAGE     NODE   VOLTAGE     NODE   VOLTAGE


(  OUT)   48.3140  (N01228)     .3959 (N01430)    1.1674 (N01866)   12.0000     

(N01936)   50.0000 (N21518)    6.7837 (N22961)    7.4714 (N26201)     .3959     

(N26542)    0.0000 (N39220)   50.0000 (N43174)    0.0000 




    VOLTAGE SOURCE CURRENTS
    NAME         CURRENT

    V_V1        -1.161E-02
    V_V2        -5.620E-03
    V_V3         0.000E+00

    TOTAL POWER DISSIPATION   4.20E-01  WATTS

**** Param: R_R7.Value = 69.30000000000000
**** Param: R_R3.Value = 10.01000000000000k

**** Command: doALL

**** 04/10/25 19:46:41 **** PSpice 24.1.0 (22 October 2024) *** ID# 0 ********

 ** Profile: "SCHEMATIC1-pp_ac"  [ C:\Cadence\Pspice sim\pp_cascode-PSpiceFiles\SCHEMATIC1\pp_ac.sim ] 


 ****     SMALL SIGNAL BIAS SOLUTION       TEMPERATURE =   27.000 DEG C

 ****     Parametric Sweep Run 30          


******************************************************************************



 NODE   VOLTAGE     NODE   VOLTAGE     NODE   VOLTAGE     NODE   VOLTAGE


(  OUT)   48.6940  (N01228)     .3067 (N01430)    1.0697 (N01866)   12.0000     

(N01936)   50.0000 (N21518)    6.7907 (N22961)    7.4716 (N26201)     .3067     

(N26542)    0.0000 (N39220)   50.0000 (N43174)    0.0000 




    VOLTAGE SOURCE CURRENTS
    NAME         CURRENT

    V_V1        -1.161E-02
    V_V2        -4.355E-03
    V_V3         0.000E+00

    TOTAL POWER DISSIPATION   3.57E-01  WATTS

**** Param: R_R7.Value = 102.30000000000000
**** Param: R_R3.Value = 110

**** Command: doALL

**** 04/10/25 19:46:41 **** PSpice 24.1.0 (22 October 2024) *** ID# 0 ********

 ** Profile: "SCHEMATIC1-pp_ac"  [ C:\Cadence\Pspice sim\pp_cascode-PSpiceFiles\SCHEMATIC1\pp_ac.sim ] 


 ****     SMALL SIGNAL BIAS SOLUTION       TEMPERATURE =   27.000 DEG C

 ****     Parametric Sweep Run 31          


******************************************************************************



 NODE   VOLTAGE     NODE   VOLTAGE     NODE   VOLTAGE     NODE   VOLTAGE


(  OUT)   32.8670  (N01228)    5.9928 (N01430)    6.9103 (N01866)   12.0000     

(N01936)   50.0000 (N21518)    6.6996 (N22961)    7.4547 (N26201)    5.9928     

(N26542)    0.0000 (N39220)   50.0000 (N43174)    0.0000 




    VOLTAGE SOURCE CURRENTS
    NAME         CURRENT

    V_V1        -1.165E-02
    V_V2        -5.711E-02
    V_V3         0.000E+00

    TOTAL POWER DISSIPATION   3.00E+00  WATTS

**** Param: R_R7.Value = 102.30000000000000
**** Param: R_R3.Value = 1.21000000000000k

**** Command: doALL

**** 04/10/25 19:46:41 **** PSpice 24.1.0 (22 October 2024) *** ID# 0 ********

 ** Profile: "SCHEMATIC1-pp_ac"  [ C:\Cadence\Pspice sim\pp_cascode-PSpiceFiles\SCHEMATIC1\pp_ac.sim ] 


 ****     SMALL SIGNAL BIAS SOLUTION       TEMPERATURE =   27.000 DEG C

 ****     Parametric Sweep Run 32          


******************************************************************************



 NODE   VOLTAGE     NODE   VOLTAGE     NODE   VOLTAGE     NODE   VOLTAGE


(  OUT)   40.5530  (N01228)    3.2855 (N01430)    4.1406 (N01866)   12.0000     

(N01936)   50.0000 (N21518)    6.7279 (N22961)    7.4638 (N26201)    3.2855     

(N26542)    0.0000 (N39220)   50.0000 (N43174)    0.0000 




    VOLTAGE SOURCE CURRENTS
    NAME         CURRENT

    V_V1        -1.163E-02
    V_V2        -3.149E-02
    V_V3         0.000E+00

    TOTAL POWER DISSIPATION   1.71E+00  WATTS

**** Param: R_R7.Value = 102.30000000000000
**** Param: R_R3.Value = 2.31000000000000k

**** Command: doALL

**** 04/10/25 19:46:41 **** PSpice 24.1.0 (22 October 2024) *** ID# 0 ********

 ** Profile: "SCHEMATIC1-pp_ac"  [ C:\Cadence\Pspice sim\pp_cascode-PSpiceFiles\SCHEMATIC1\pp_ac.sim ] 


 ****     SMALL SIGNAL BIAS SOLUTION       TEMPERATURE =   27.000 DEG C

 ****     Parametric Sweep Run 33          


******************************************************************************



 NODE   VOLTAGE     NODE   VOLTAGE     NODE   VOLTAGE     NODE   VOLTAGE


(  OUT)   43.7280  (N01228)    2.1775 (N01430)    3.0058 (N01866)   12.0000     

(N01936)   50.0000 (N21518)    6.7431 (N22961)    7.4669 (N26201)    2.1775     

(N26542)    0.0000 (N39220)   50.0000 (N43174)    0.0000 




    VOLTAGE SOURCE CURRENTS
    NAME         CURRENT

    V_V1        -1.162E-02
    V_V2        -2.091E-02
    V_V3         0.000E+00

    TOTAL POWER DISSIPATION   1.18E+00  WATTS

**** Param: R_R7.Value = 102.30000000000000
**** Param: R_R3.Value = 3.41000000000000k

**** Command: doALL

**** 04/10/25 19:46:41 **** PSpice 24.1.0 (22 October 2024) *** ID# 0 ********

 ** Profile: "SCHEMATIC1-pp_ac"  [ C:\Cadence\Pspice sim\pp_cascode-PSpiceFiles\SCHEMATIC1\pp_ac.sim ] 


 ****     SMALL SIGNAL BIAS SOLUTION       TEMPERATURE =   27.000 DEG C

 ****     Parametric Sweep Run 34          


******************************************************************************



 NODE   VOLTAGE     NODE   VOLTAGE     NODE   VOLTAGE     NODE   VOLTAGE


(  OUT)   45.4950  (N01228)    1.5627 (N01430)    2.3737 (N01866)   12.0000     

(N01936)   50.0000 (N21518)    6.7541 (N22961)    7.4685 (N26201)    1.5627     

(N26542)    0.0000 (N39220)   50.0000 (N43174)    0.0000 




    VOLTAGE SOURCE CURRENTS
    NAME         CURRENT

    V_V1        -1.162E-02
    V_V2        -1.502E-02
    V_V3         0.000E+00

    TOTAL POWER DISSIPATION   8.90E-01  WATTS

**** Param: R_R7.Value = 102.30000000000000
**** Param: R_R3.Value = 4.51000000000000k

**** Command: doALL

**** 04/10/25 19:46:41 **** PSpice 24.1.0 (22 October 2024) *** ID# 0 ********

 ** Profile: "SCHEMATIC1-pp_ac"  [ C:\Cadence\Pspice sim\pp_cascode-PSpiceFiles\SCHEMATIC1\pp_ac.sim ] 


 ****     SMALL SIGNAL BIAS SOLUTION       TEMPERATURE =   27.000 DEG C

 ****     Parametric Sweep Run 35          


******************************************************************************



 NODE   VOLTAGE     NODE   VOLTAGE     NODE   VOLTAGE     NODE   VOLTAGE


(  OUT)   46.6240  (N01228)    1.1706 (N01430)    1.9687 (N01866)   12.0000     

(N01936)   50.0000 (N21518)    6.7631 (N22961)    7.4695 (N26201)    1.1706     

(N26542)    0.0000 (N39220)   50.0000 (N43174)    0.0000 




    VOLTAGE SOURCE CURRENTS
    NAME         CURRENT

    V_V1        -1.162E-02
    V_V2        -1.125E-02
    V_V3         0.000E+00

    TOTAL POWER DISSIPATION   7.02E-01  WATTS

**** Param: R_R7.Value = 102.30000000000000
**** Param: R_R3.Value = 5.61000000000000k

**** Command: doALL

**** 04/10/25 19:46:41 **** PSpice 24.1.0 (22 October 2024) *** ID# 0 ********

 ** Profile: "SCHEMATIC1-pp_ac"  [ C:\Cadence\Pspice sim\pp_cascode-PSpiceFiles\SCHEMATIC1\pp_ac.sim ] 


 ****     SMALL SIGNAL BIAS SOLUTION       TEMPERATURE =   27.000 DEG C

 ****     Parametric Sweep Run 36          


******************************************************************************



 NODE   VOLTAGE     NODE   VOLTAGE     NODE   VOLTAGE     NODE   VOLTAGE


(  OUT)   47.4070  (N01228)     .8990 (N01430)    1.6864 (N01866)   12.0000     

(N01936)   50.0000 (N21518)    6.7710 (N22961)    7.4702 (N26201)     .8990     

(N26542)    0.0000 (N39220)   50.0000 (N43174)    0.0000 




    VOLTAGE SOURCE CURRENTS
    NAME         CURRENT

    V_V1        -1.161E-02
    V_V2        -8.644E-03
    V_V3         0.000E+00

    TOTAL POWER DISSIPATION   5.72E-01  WATTS

**** Param: R_R7.Value = 102.30000000000000
**** Param: R_R3.Value = 6.71000000000000k

**** Command: doALL

**** 04/10/25 19:46:41 **** PSpice 24.1.0 (22 October 2024) *** ID# 0 ********

 ** Profile: "SCHEMATIC1-pp_ac"  [ C:\Cadence\Pspice sim\pp_cascode-PSpiceFiles\SCHEMATIC1\pp_ac.sim ] 


 ****     SMALL SIGNAL BIAS SOLUTION       TEMPERATURE =   27.000 DEG C

 ****     Parametric Sweep Run 37          


******************************************************************************



 NODE   VOLTAGE     NODE   VOLTAGE     NODE   VOLTAGE     NODE   VOLTAGE


(  OUT)   47.9800  (N01228)     .7001 (N01430)    1.4782 (N01866)   12.0000     

(N01936)   50.0000 (N21518)    6.7782 (N22961)    7.4707 (N26201)     .7001     

(N26542)    0.0000 (N39220)   50.0000 (N43174)    0.0000 




    VOLTAGE SOURCE CURRENTS
    NAME         CURRENT

    V_V1        -1.161E-02
    V_V2        -6.732E-03
    V_V3         0.000E+00

    TOTAL POWER DISSIPATION   4.76E-01  WATTS

**** Param: R_R7.Value = 102.30000000000000
**** Param: R_R3.Value = 7.81000000000000k

**** Command: doALL

**** 04/10/25 19:46:41 **** PSpice 24.1.0 (22 October 2024) *** ID# 0 ********

 ** Profile: "SCHEMATIC1-pp_ac"  [ C:\Cadence\Pspice sim\pp_cascode-PSpiceFiles\SCHEMATIC1\pp_ac.sim ] 


 ****     SMALL SIGNAL BIAS SOLUTION       TEMPERATURE =   27.000 DEG C

 ****     Parametric Sweep Run 38          


******************************************************************************



 NODE   VOLTAGE     NODE   VOLTAGE     NODE   VOLTAGE     NODE   VOLTAGE


(  OUT)   48.4170  (N01228)     .5486 (N01430)    1.3182 (N01866)   12.0000     

(N01936)   50.0000 (N21518)    6.7851 (N22961)    7.4711 (N26201)     .5486     

(N26542)    0.0000 (N39220)   50.0000 (N43174)    0.0000 




    VOLTAGE SOURCE CURRENTS
    NAME         CURRENT

    V_V1        -1.161E-02
    V_V2        -5.276E-03
    V_V3         0.000E+00

    TOTAL POWER DISSIPATION   4.03E-01  WATTS

**** Param: R_R7.Value = 102.30000000000000
**** Param: R_R3.Value = 8.91000000000000k

**** Command: doALL

**** 04/10/25 19:46:41 **** PSpice 24.1.0 (22 October 2024) *** ID# 0 ********

 ** Profile: "SCHEMATIC1-pp_ac"  [ C:\Cadence\Pspice sim\pp_cascode-PSpiceFiles\SCHEMATIC1\pp_ac.sim ] 


 ****     SMALL SIGNAL BIAS SOLUTION       TEMPERATURE =   27.000 DEG C

 ****     Parametric Sweep Run 39          


******************************************************************************



 NODE   VOLTAGE     NODE   VOLTAGE     NODE   VOLTAGE     NODE   VOLTAGE


(  OUT)   48.7600  (N01228)     .4298 (N01430)    1.1912 (N01866)   12.0000     

(N01936)   50.0000 (N21518)    6.7919 (N22961)    7.4714 (N26201)     .4298     

(N26542)    0.0000 (N39220)   50.0000 (N43174)    0.0000 




    VOLTAGE SOURCE CURRENTS
    NAME         CURRENT

    V_V1        -1.161E-02
    V_V2        -4.133E-03
    V_V3         0.000E+00

    TOTAL POWER DISSIPATION   3.46E-01  WATTS

**** Param: R_R7.Value = 102.30000000000000
**** Param: R_R3.Value = 10.01000000000000k

**** Command: doALL

**** 04/10/25 19:46:41 **** PSpice 24.1.0 (22 October 2024) *** ID# 0 ********

 ** Profile: "SCHEMATIC1-pp_ac"  [ C:\Cadence\Pspice sim\pp_cascode-PSpiceFiles\SCHEMATIC1\pp_ac.sim ] 


 ****     SMALL SIGNAL BIAS SOLUTION       TEMPERATURE =   27.000 DEG C

 ****     Parametric Sweep Run 40          


******************************************************************************



 NODE   VOLTAGE     NODE   VOLTAGE     NODE   VOLTAGE     NODE   VOLTAGE


(  OUT)   49.0350  (N01228)     .3346 (N01430)    1.0879 (N01866)   12.0000     

(N01936)   50.0000 (N21518)    6.7987 (N22961)    7.4716 (N26201)     .3346     

(N26542)    0.0000 (N39220)   50.0000 (N43174)    0.0000 




    VOLTAGE SOURCE CURRENTS
    NAME         CURRENT

    V_V1        -1.161E-02
    V_V2        -3.217E-03
    V_V3         0.000E+00

    TOTAL POWER DISSIPATION   3.00E-01  WATTS

**** Param: R_R7.Value = 135.30000000000001
**** Param: R_R3.Value = 110

**** Command: doALL

**** 04/10/25 19:46:41 **** PSpice 24.1.0 (22 October 2024) *** ID# 0 ********

 ** Profile: "SCHEMATIC1-pp_ac"  [ C:\Cadence\Pspice sim\pp_cascode-PSpiceFiles\SCHEMATIC1\pp_ac.sim ] 


 ****     SMALL SIGNAL BIAS SOLUTION       TEMPERATURE =   27.000 DEG C

 ****     Parametric Sweep Run 41          


******************************************************************************



 NODE   VOLTAGE     NODE   VOLTAGE     NODE   VOLTAGE     NODE   VOLTAGE


(  OUT)   36.8800  (N01228)    6.0575 (N01430)    6.9463 (N01866)   12.0000     

(N01936)   50.0000 (N21518)    6.7102 (N22961)    7.4564 (N26201)    6.0575     

(N26542)    0.0000 (N39220)   50.0000 (N43174)    0.0000 




    VOLTAGE SOURCE CURRENTS
    NAME         CURRENT

    V_V1        -1.165E-02
    V_V2        -4.373E-02
    V_V3         0.000E+00

    TOTAL POWER DISSIPATION   2.33E+00  WATTS

**** Param: R_R7.Value = 135.30000000000001
**** Param: R_R3.Value = 1.21000000000000k

**** Command: doALL

**** 04/10/25 19:46:41 **** PSpice 24.1.0 (22 October 2024) *** ID# 0 ********

 ** Profile: "SCHEMATIC1-pp_ac"  [ C:\Cadence\Pspice sim\pp_cascode-PSpiceFiles\SCHEMATIC1\pp_ac.sim ] 


 ****     SMALL SIGNAL BIAS SOLUTION       TEMPERATURE =   27.000 DEG C

 ****     Parametric Sweep Run 42          


******************************************************************************



 NODE   VOLTAGE     NODE   VOLTAGE     NODE   VOLTAGE     NODE   VOLTAGE


(  OUT)   42.6370  (N01228)    3.3842 (N01430)    4.2234 (N01866)   12.0000     

(N01936)   50.0000 (N21518)    6.7357 (N22961)    7.4642 (N26201)    3.3842     

(N26542)    0.0000 (N39220)   50.0000 (N43174)    0.0000 




    VOLTAGE SOURCE CURRENTS
    NAME         CURRENT

    V_V1        -1.163E-02
    V_V2        -2.454E-02
    V_V3         0.000E+00

    TOTAL POWER DISSIPATION   1.37E+00  WATTS

**** Param: R_R7.Value = 135.30000000000001
**** Param: R_R3.Value = 2.31000000000000k

**** Command: doALL

**** 04/10/25 19:46:41 **** PSpice 24.1.0 (22 October 2024) *** ID# 0 ********

 ** Profile: "SCHEMATIC1-pp_ac"  [ C:\Cadence\Pspice sim\pp_cascode-PSpiceFiles\SCHEMATIC1\pp_ac.sim ] 


 ****     SMALL SIGNAL BIAS SOLUTION       TEMPERATURE =   27.000 DEG C

 ****     Parametric Sweep Run 43          


******************************************************************************



 NODE   VOLTAGE     NODE   VOLTAGE     NODE   VOLTAGE     NODE   VOLTAGE


(  OUT)   45.0900  (N01228)    2.2535 (N01430)    3.0695 (N01866)   12.0000     

(N01936)   50.0000 (N21518)    6.7503 (N22961)    7.4671 (N26201)    2.2535     

(N26542)    0.0000 (N39220)   50.0000 (N43174)    0.0000 




    VOLTAGE SOURCE CURRENTS
    NAME         CURRENT

    V_V1        -1.162E-02
    V_V2        -1.637E-02
    V_V3         0.000E+00

    TOTAL POWER DISSIPATION   9.58E-01  WATTS

**** Param: R_R7.Value = 135.30000000000001
**** Param: R_R3.Value = 3.41000000000000k

**** Command: doALL

**** 04/10/25 19:46:41 **** PSpice 24.1.0 (22 October 2024) *** ID# 0 ********

 ** Profile: "SCHEMATIC1-pp_ac"  [ C:\Cadence\Pspice sim\pp_cascode-PSpiceFiles\SCHEMATIC1\pp_ac.sim ] 


 ****     SMALL SIGNAL BIAS SOLUTION       TEMPERATURE =   27.000 DEG C

 ****     Parametric Sweep Run 44          


******************************************************************************



 NODE   VOLTAGE     NODE   VOLTAGE     NODE   VOLTAGE     NODE   VOLTAGE


(  OUT)   46.4660  (N01228)    1.6211 (N01430)    2.4216 (N01866)   12.0000     

(N01936)   50.0000 (N21518)    6.7610 (N22961)    7.4686 (N26201)    1.6211     

(N26542)    0.0000 (N39220)   50.0000 (N43174)    0.0000 




    VOLTAGE SOURCE CURRENTS
    NAME         CURRENT

    V_V1        -1.162E-02
    V_V2        -1.178E-02
    V_V3         0.000E+00

    TOTAL POWER DISSIPATION   7.28E-01  WATTS

**** Param: R_R7.Value = 135.30000000000001
**** Param: R_R3.Value = 4.51000000000000k

**** Command: doALL

**** 04/10/25 19:46:41 **** PSpice 24.1.0 (22 October 2024) *** ID# 0 ********

 ** Profile: "SCHEMATIC1-pp_ac"  [ C:\Cadence\Pspice sim\pp_cascode-PSpiceFiles\SCHEMATIC1\pp_ac.sim ] 


 ****     SMALL SIGNAL BIAS SOLUTION       TEMPERATURE =   27.000 DEG C

 ****     Parametric Sweep Run 45          


******************************************************************************



 NODE   VOLTAGE     NODE   VOLTAGE     NODE   VOLTAGE     NODE   VOLTAGE


(  OUT)   47.3470  (N01228)    1.2166 (N01430)    2.0053 (N01866)   12.0000     

(N01936)   50.0000 (N21518)    6.7697 (N22961)    7.4696 (N26201)    1.2166     

(N26542)    0.0000 (N39220)   50.0000 (N43174)    0.0000 




    VOLTAGE SOURCE CURRENTS
    NAME         CURRENT

    V_V1        -1.162E-02
    V_V2        -8.844E-03
    V_V3         0.000E+00

    TOTAL POWER DISSIPATION   5.82E-01  WATTS

**** Param: R_R7.Value = 135.30000000000001
**** Param: R_R3.Value = 5.61000000000000k

**** Command: doALL

**** 04/10/25 19:46:41 **** PSpice 24.1.0 (22 October 2024) *** ID# 0 ********

 ** Profile: "SCHEMATIC1-pp_ac"  [ C:\Cadence\Pspice sim\pp_cascode-PSpiceFiles\SCHEMATIC1\pp_ac.sim ] 


 ****     SMALL SIGNAL BIAS SOLUTION       TEMPERATURE =   27.000 DEG C

 ****     Parametric Sweep Run 46          


******************************************************************************



 NODE   VOLTAGE     NODE   VOLTAGE     NODE   VOLTAGE     NODE   VOLTAGE


(  OUT)   47.9580  (N01228)     .9360 (N01430)    1.7148 (N01866)   12.0000     

(N01936)   50.0000 (N21518)    6.7775 (N22961)    7.4703 (N26201)     .9360     

(N26542)    0.0000 (N39220)   50.0000 (N43174)    0.0000 




    VOLTAGE SOURCE CURRENTS
    NAME         CURRENT

    V_V1        -1.161E-02
    V_V2        -6.805E-03
    V_V3         0.000E+00

    TOTAL POWER DISSIPATION   4.80E-01  WATTS

**** Param: R_R7.Value = 135.30000000000001
**** Param: R_R3.Value = 6.71000000000000k

**** Command: doALL

**** 04/10/25 19:46:41 **** PSpice 24.1.0 (22 October 2024) *** ID# 0 ********

 ** Profile: "SCHEMATIC1-pp_ac"  [ C:\Cadence\Pspice sim\pp_cascode-PSpiceFiles\SCHEMATIC1\pp_ac.sim ] 


 ****     SMALL SIGNAL BIAS SOLUTION       TEMPERATURE =   27.000 DEG C

 ****     Parametric Sweep Run 47          


******************************************************************************



 NODE   VOLTAGE     NODE   VOLTAGE     NODE   VOLTAGE     NODE   VOLTAGE


(  OUT)   48.4070  (N01228)     .7303 (N01430)    1.5003 (N01866)   12.0000     

(N01936)   50.0000 (N21518)    6.7846 (N22961)    7.4708 (N26201)     .7303     

(N26542)    0.0000 (N39220)   50.0000 (N43174)    0.0000 




    VOLTAGE SOURCE CURRENTS
    NAME         CURRENT

    V_V1        -1.161E-02
    V_V2        -5.310E-03
    V_V3         0.000E+00

    TOTAL POWER DISSIPATION   4.05E-01  WATTS

**** Param: R_R7.Value = 135.30000000000001
**** Param: R_R3.Value = 7.81000000000000k

**** Command: doALL

**** 04/10/25 19:46:41 **** PSpice 24.1.0 (22 October 2024) *** ID# 0 ********

 ** Profile: "SCHEMATIC1-pp_ac"  [ C:\Cadence\Pspice sim\pp_cascode-PSpiceFiles\SCHEMATIC1\pp_ac.sim ] 


 ****     SMALL SIGNAL BIAS SOLUTION       TEMPERATURE =   27.000 DEG C

 ****     Parametric Sweep Run 48          


******************************************************************************



 NODE   VOLTAGE     NODE   VOLTAGE     NODE   VOLTAGE     NODE   VOLTAGE


(  OUT)   48.7490  (N01228)     .5736 (N01430)    1.3355 (N01866)   12.0000     

(N01936)   50.0000 (N21518)    6.7914 (N22961)    7.4711 (N26201)     .5736     

(N26542)    0.0000 (N39220)   50.0000 (N43174)    0.0000 




    VOLTAGE SOURCE CURRENTS
    NAME         CURRENT

    V_V1        -1.161E-02
    V_V2        -4.170E-03
    V_V3         0.000E+00

    TOTAL POWER DISSIPATION   3.48E-01  WATTS

**** Param: R_R7.Value = 135.30000000000001
**** Param: R_R3.Value = 8.91000000000000k

**** Command: doALL

**** 04/10/25 19:46:41 **** PSpice 24.1.0 (22 October 2024) *** ID# 0 ********

 ** Profile: "SCHEMATIC1-pp_ac"  [ C:\Cadence\Pspice sim\pp_cascode-PSpiceFiles\SCHEMATIC1\pp_ac.sim ] 


 ****     SMALL SIGNAL BIAS SOLUTION       TEMPERATURE =   27.000 DEG C

 ****     Parametric Sweep Run 49          


******************************************************************************



 NODE   VOLTAGE     NODE   VOLTAGE     NODE   VOLTAGE     NODE   VOLTAGE


(  OUT)   49.0170  (N01228)     .4506 (N01430)    1.2047 (N01866)   12.0000     

(N01936)   50.0000 (N21518)    6.7980 (N22961)    7.4714 (N26201)     .4506     

(N26542)    0.0000 (N39220)   50.0000 (N43174)    0.0000 




    VOLTAGE SOURCE CURRENTS
    NAME         CURRENT

    V_V1        -1.161E-02
    V_V2        -3.276E-03
    V_V3         0.000E+00

    TOTAL POWER DISSIPATION   3.03E-01  WATTS

**** Param: R_R7.Value = 135.30000000000001
**** Param: R_R3.Value = 10.01000000000000k

**** Command: doALL

**** 04/10/25 19:46:41 **** PSpice 24.1.0 (22 October 2024) *** ID# 0 ********

 ** Profile: "SCHEMATIC1-pp_ac"  [ C:\Cadence\Pspice sim\pp_cascode-PSpiceFiles\SCHEMATIC1\pp_ac.sim ] 


 ****     SMALL SIGNAL BIAS SOLUTION       TEMPERATURE =   27.000 DEG C

 ****     Parametric Sweep Run 50          


******************************************************************************



 NODE   VOLTAGE     NODE   VOLTAGE     NODE   VOLTAGE     NODE   VOLTAGE


(  OUT)   49.2320  (N01228)     .3520 (N01430)    1.0983 (N01866)   12.0000     

(N01936)   50.0000 (N21518)    6.8047 (N22961)    7.4717 (N26201)     .3520     

(N26542)    0.0000 (N39220)   50.0000 (N43174)    0.0000 




    VOLTAGE SOURCE CURRENTS
    NAME         CURRENT

    V_V1        -1.161E-02
    V_V2        -2.558E-03
    V_V3         0.000E+00

    TOTAL POWER DISSIPATION   2.67E-01  WATTS

**** Param: R_R7.Value = 168.30000000000001
**** Param: R_R3.Value = 110

**** Command: doALL

**** 04/10/25 19:46:41 **** PSpice 24.1.0 (22 October 2024) *** ID# 0 ********

 ** Profile: "SCHEMATIC1-pp_ac"  [ C:\Cadence\Pspice sim\pp_cascode-PSpiceFiles\SCHEMATIC1\pp_ac.sim ] 


 ****     SMALL SIGNAL BIAS SOLUTION       TEMPERATURE =   27.000 DEG C

 ****     Parametric Sweep Run 51          


******************************************************************************



 NODE   VOLTAGE     NODE   VOLTAGE     NODE   VOLTAGE     NODE   VOLTAGE


(  OUT)   39.3730  (N01228)    6.0958 (N01430)    6.9662 (N01866)   12.0000     

(N01936)   50.0000 (N21518)    6.7178 (N22961)    7.4573 (N26201)    6.0958     

(N26542)    0.0000 (N39220)   50.0000 (N43174)    0.0000 




    VOLTAGE SOURCE CURRENTS
    NAME         CURRENT

    V_V1        -1.165E-02
    V_V2        -3.542E-02
    V_V3         0.000E+00

    TOTAL POWER DISSIPATION   1.91E+00  WATTS

**** Param: R_R7.Value = 168.30000000000001
**** Param: R_R3.Value = 1.21000000000000k

**** Command: doALL

**** 04/10/25 19:46:41 **** PSpice 24.1.0 (22 October 2024) *** ID# 0 ********

 ** Profile: "SCHEMATIC1-pp_ac"  [ C:\Cadence\Pspice sim\pp_cascode-PSpiceFiles\SCHEMATIC1\pp_ac.sim ] 


 ****     SMALL SIGNAL BIAS SOLUTION       TEMPERATURE =   27.000 DEG C

 ****     Parametric Sweep Run 52          


******************************************************************************



 NODE   VOLTAGE     NODE   VOLTAGE     NODE   VOLTAGE     NODE   VOLTAGE


(  OUT)   43.9720  (N01228)    3.4450 (N01430)    4.2731 (N01866)   12.0000     

(N01936)   50.0000 (N21518)    6.7418 (N22961)    7.4644 (N26201)    3.4450     

(N26542)    0.0000 (N39220)   50.0000 (N43174)    0.0000 




    VOLTAGE SOURCE CURRENTS
    NAME         CURRENT

    V_V1        -1.163E-02
    V_V2        -2.009E-02
    V_V3         0.000E+00

    TOTAL POWER DISSIPATION   1.14E+00  WATTS

**** Param: R_R7.Value = 168.30000000000001
**** Param: R_R3.Value = 2.31000000000000k

**** Command: doALL

**** 04/10/25 19:46:41 **** PSpice 24.1.0 (22 October 2024) *** ID# 0 ********

 ** Profile: "SCHEMATIC1-pp_ac"  [ C:\Cadence\Pspice sim\pp_cascode-PSpiceFiles\SCHEMATIC1\pp_ac.sim ] 


 ****     SMALL SIGNAL BIAS SOLUTION       TEMPERATURE =   27.000 DEG C

 ****     Parametric Sweep Run 53          


******************************************************************************



 NODE   VOLTAGE     NODE   VOLTAGE     NODE   VOLTAGE     NODE   VOLTAGE


(  OUT)   45.9680  (N01228)    2.3016 (N01430)    3.1087 (N01866)   12.0000     

(N01936)   50.0000 (N21518)    6.7559 (N22961)    7.4672 (N26201)    2.3016     

(N26542)    0.0000 (N39220)   50.0000 (N43174)    0.0000 




    VOLTAGE SOURCE CURRENTS
    NAME         CURRENT

    V_V1        -1.162E-02
    V_V2        -1.344E-02
    V_V3         0.000E+00

    TOTAL POWER DISSIPATION   8.12E-01  WATTS

**** Param: R_R7.Value = 168.30000000000001
**** Param: R_R3.Value = 3.41000000000000k

**** Command: doALL

**** 04/10/25 19:46:41 **** PSpice 24.1.0 (22 October 2024) *** ID# 0 ********

 ** Profile: "SCHEMATIC1-pp_ac"  [ C:\Cadence\Pspice sim\pp_cascode-PSpiceFiles\SCHEMATIC1\pp_ac.sim ] 


 ****     SMALL SIGNAL BIAS SOLUTION       TEMPERATURE =   27.000 DEG C

 ****     Parametric Sweep Run 54          


******************************************************************************



 NODE   VOLTAGE     NODE   VOLTAGE     NODE   VOLTAGE     NODE   VOLTAGE


(  OUT)   47.0920  (N01228)    1.6588 (N01430)    2.4516 (N01866)   12.0000     

(N01936)   50.0000 (N21518)    6.7664 (N22961)    7.4687 (N26201)    1.6588     

(N26542)    0.0000 (N39220)   50.0000 (N43174)    0.0000 




    VOLTAGE SOURCE CURRENTS
    NAME         CURRENT

    V_V1        -1.162E-02
    V_V2        -9.693E-03
    V_V3         0.000E+00

    TOTAL POWER DISSIPATION   6.24E-01  WATTS

**** Param: R_R7.Value = 168.30000000000001
**** Param: R_R3.Value = 4.51000000000000k

**** Command: doALL

**** 04/10/25 19:46:41 **** PSpice 24.1.0 (22 October 2024) *** ID# 0 ********

 ** Profile: "SCHEMATIC1-pp_ac"  [ C:\Cadence\Pspice sim\pp_cascode-PSpiceFiles\SCHEMATIC1\pp_ac.sim ] 


 ****     SMALL SIGNAL BIAS SOLUTION       TEMPERATURE =   27.000 DEG C

 ****     Parametric Sweep Run 55          


******************************************************************************



 NODE   VOLTAGE     NODE   VOLTAGE     NODE   VOLTAGE     NODE   VOLTAGE


(  OUT)   47.8140  (N01228)    1.2468 (N01430)    2.0284 (N01866)   12.0000     

(N01936)   50.0000 (N21518)    6.7750 (N22961)    7.4696 (N26201)    1.2468     

(N26542)    0.0000 (N39220)   50.0000 (N43174)    0.0000 




    VOLTAGE SOURCE CURRENTS
    NAME         CURRENT

    V_V1        -1.162E-02
    V_V2        -7.287E-03
    V_V3         0.000E+00

    TOTAL POWER DISSIPATION   5.04E-01  WATTS

**** Param: R_R7.Value = 168.30000000000001
**** Param: R_R3.Value = 5.61000000000000k

**** Command: doALL

**** 04/10/25 19:46:41 **** PSpice 24.1.0 (22 October 2024) *** ID# 0 ********

 ** Profile: "SCHEMATIC1-pp_ac"  [ C:\Cadence\Pspice sim\pp_cascode-PSpiceFiles\SCHEMATIC1\pp_ac.sim ] 


 ****     SMALL SIGNAL BIAS SOLUTION       TEMPERATURE =   27.000 DEG C

 ****     Parametric Sweep Run 56          


******************************************************************************



 NODE   VOLTAGE     NODE   VOLTAGE     NODE   VOLTAGE     NODE   VOLTAGE


(  OUT)   48.3160  (N01228)     .9607 (N01430)    1.7328 (N01866)   12.0000     

(N01936)   50.0000 (N21518)    6.7826 (N22961)    7.4703 (N26201)     .9607     

(N26542)    0.0000 (N39220)   50.0000 (N43174)    0.0000 




    VOLTAGE SOURCE CURRENTS
    NAME         CURRENT

    V_V1        -1.161E-02
    V_V2        -5.615E-03
    V_V3         0.000E+00

    TOTAL POWER DISSIPATION   4.20E-01  WATTS

**** Param: R_R7.Value = 168.30000000000001
**** Param: R_R3.Value = 6.71000000000000k

**** Command: doALL

**** 04/10/25 19:46:41 **** PSpice 24.1.0 (22 October 2024) *** ID# 0 ********

 ** Profile: "SCHEMATIC1-pp_ac"  [ C:\Cadence\Pspice sim\pp_cascode-PSpiceFiles\SCHEMATIC1\pp_ac.sim ] 


 ****     SMALL SIGNAL BIAS SOLUTION       TEMPERATURE =   27.000 DEG C

 ****     Parametric Sweep Run 57          


******************************************************************************



 NODE   VOLTAGE     NODE   VOLTAGE     NODE   VOLTAGE     NODE   VOLTAGE


(  OUT)   48.6840  (N01228)     .7508 (N01430)    1.5145 (N01866)   12.0000     

(N01936)   50.0000 (N21518)    6.7897 (N22961)    7.4708 (N26201)     .7508     

(N26542)    0.0000 (N39220)   50.0000 (N43174)    0.0000 




    VOLTAGE SOURCE CURRENTS
    NAME         CURRENT

    V_V1        -1.161E-02
    V_V2        -4.388E-03
    V_V3         0.000E+00

    TOTAL POWER DISSIPATION   3.59E-01  WATTS

**** Param: R_R7.Value = 168.30000000000001
**** Param: R_R3.Value = 7.81000000000000k

**** Command: doALL

**** 04/10/25 19:46:41 **** PSpice 24.1.0 (22 October 2024) *** ID# 0 ********

 ** Profile: "SCHEMATIC1-pp_ac"  [ C:\Cadence\Pspice sim\pp_cascode-PSpiceFiles\SCHEMATIC1\pp_ac.sim ] 


 ****     SMALL SIGNAL BIAS SOLUTION       TEMPERATURE =   27.000 DEG C

 ****     Parametric Sweep Run 58          


******************************************************************************



 NODE   VOLTAGE     NODE   VOLTAGE     NODE   VOLTAGE     NODE   VOLTAGE


(  OUT)   48.9640  (N01228)     .5907 (N01430)    1.3466 (N01866)   12.0000     

(N01936)   50.0000 (N21518)    6.7964 (N22961)    7.4711 (N26201)     .5907     

(N26542)    0.0000 (N39220)   50.0000 (N43174)    0.0000 




    VOLTAGE SOURCE CURRENTS
    NAME         CURRENT

    V_V1        -1.161E-02
    V_V2        -3.452E-03
    V_V3         0.000E+00

    TOTAL POWER DISSIPATION   3.12E-01  WATTS

**** Param: R_R7.Value = 168.30000000000001
**** Param: R_R3.Value = 8.91000000000000k

**** Command: doALL

**** 04/10/25 19:46:41 **** PSpice 24.1.0 (22 October 2024) *** ID# 0 ********

 ** Profile: "SCHEMATIC1-pp_ac"  [ C:\Cadence\Pspice sim\pp_cascode-PSpiceFiles\SCHEMATIC1\pp_ac.sim ] 


 ****     SMALL SIGNAL BIAS SOLUTION       TEMPERATURE =   27.000 DEG C

 ****     Parametric Sweep Run 59          


******************************************************************************



 NODE   VOLTAGE     NODE   VOLTAGE     NODE   VOLTAGE     NODE   VOLTAGE


(  OUT)   49.1850  (N01228)     .4651 (N01430)    1.2134 (N01866)   12.0000     

(N01936)   50.0000 (N21518)    6.8029 (N22961)    7.4714 (N26201)     .4651     

(N26542)    0.0000 (N39220)   50.0000 (N43174)    0.0000 




    VOLTAGE SOURCE CURRENTS
    NAME         CURRENT

    V_V1        -1.161E-02
    V_V2        -2.718E-03
    V_V3         0.000E+00

    TOTAL POWER DISSIPATION   2.75E-01  WATTS

**** Param: R_R7.Value = 168.30000000000001
**** Param: R_R3.Value = 10.01000000000000k

**** Command: doALL

**** 04/10/25 19:46:41 **** PSpice 24.1.0 (22 October 2024) *** ID# 0 ********

 ** Profile: "SCHEMATIC1-pp_ac"  [ C:\Cadence\Pspice sim\pp_cascode-PSpiceFiles\SCHEMATIC1\pp_ac.sim ] 


 ****     SMALL SIGNAL BIAS SOLUTION       TEMPERATURE =   27.000 DEG C

 ****     Parametric Sweep Run 60          


******************************************************************************



 NODE   VOLTAGE     NODE   VOLTAGE     NODE   VOLTAGE     NODE   VOLTAGE


(  OUT)   49.3620  (N01228)     .3643 (N01430)    1.1051 (N01866)   12.0000     

(N01936)   50.0000 (N21518)    6.8096 (N22961)    7.4717 (N26201)     .3643     

(N26542)    0.0000 (N39220)   50.0000 (N43174)    0.0000 




    VOLTAGE SOURCE CURRENTS
    NAME         CURRENT

    V_V1        -1.161E-02
    V_V2        -2.128E-03
    V_V3         0.000E+00

    TOTAL POWER DISSIPATION   2.46E-01  WATTS

**** Param: R_R7.Value = 201.30000000000001
**** Param: R_R3.Value = 110

**** Command: doALL

**** 04/10/25 19:46:41 **** PSpice 24.1.0 (22 October 2024) *** ID# 0 ********

 ** Profile: "SCHEMATIC1-pp_ac"  [ C:\Cadence\Pspice sim\pp_cascode-PSpiceFiles\SCHEMATIC1\pp_ac.sim ] 


 ****     SMALL SIGNAL BIAS SOLUTION       TEMPERATURE =   27.000 DEG C

 ****     Parametric Sweep Run 61          


******************************************************************************



 NODE   VOLTAGE     NODE   VOLTAGE     NODE   VOLTAGE     NODE   VOLTAGE


(  OUT)   41.0710  (N01228)    6.1214 (N01430)    6.9788 (N01866)   12.0000     

(N01936)   50.0000 (N21518)    6.7237 (N22961)    7.4578 (N26201)    6.1214     

(N26542)    0.0000 (N39220)   50.0000 (N43174)    0.0000 




    VOLTAGE SOURCE CURRENTS
    NAME         CURRENT

    V_V1        -1.165E-02
    V_V2        -2.976E-02
    V_V3         0.000E+00

    TOTAL POWER DISSIPATION   1.63E+00  WATTS

**** Param: R_R7.Value = 201.30000000000001
**** Param: R_R3.Value = 1.21000000000000k

**** Command: doALL

**** 04/10/25 19:46:41 **** PSpice 24.1.0 (22 October 2024) *** ID# 0 ********

 ** Profile: "SCHEMATIC1-pp_ac"  [ C:\Cadence\Pspice sim\pp_cascode-PSpiceFiles\SCHEMATIC1\pp_ac.sim ] 


 ****     SMALL SIGNAL BIAS SOLUTION       TEMPERATURE =   27.000 DEG C

 ****     Parametric Sweep Run 62          


******************************************************************************



 NODE   VOLTAGE     NODE   VOLTAGE     NODE   VOLTAGE     NODE   VOLTAGE


(  OUT)   44.8980  (N01228)    3.4864 (N01430)    4.3060 (N01866)   12.0000     

(N01936)   50.0000 (N21518)    6.7467 (N22961)    7.4646 (N26201)    3.4864     

(N26542)    0.0000 (N39220)   50.0000 (N43174)    0.0000 




    VOLTAGE SOURCE CURRENTS
    NAME         CURRENT

    V_V1        -1.163E-02
    V_V2        -1.701E-02
    V_V3         0.000E+00

    TOTAL POWER DISSIPATION   9.90E-01  WATTS

**** Param: R_R7.Value = 201.30000000000001
**** Param: R_R3.Value = 2.31000000000000k

**** Command: doALL

**** 04/10/25 19:46:41 **** PSpice 24.1.0 (22 October 2024) *** ID# 0 ********

 ** Profile: "SCHEMATIC1-pp_ac"  [ C:\Cadence\Pspice sim\pp_cascode-PSpiceFiles\SCHEMATIC1\pp_ac.sim ] 


 ****     SMALL SIGNAL BIAS SOLUTION       TEMPERATURE =   27.000 DEG C

 ****     Parametric Sweep Run 63          


******************************************************************************



 NODE   VOLTAGE     NODE   VOLTAGE     NODE   VOLTAGE     NODE   VOLTAGE


(  OUT)   46.5790  (N01228)    2.3350 (N01430)    3.1351 (N01866)   12.0000     

(N01936)   50.0000 (N21518)    6.7605 (N22961)    7.4673 (N26201)    2.3350     

(N26542)    0.0000 (N39220)   50.0000 (N43174)    0.0000 




    VOLTAGE SOURCE CURRENTS
    NAME         CURRENT

    V_V1        -1.162E-02
    V_V2        -1.140E-02
    V_V3         0.000E+00

    TOTAL POWER DISSIPATION   7.10E-01  WATTS

**** Param: R_R7.Value = 201.30000000000001
**** Param: R_R3.Value = 3.41000000000000k

**** Command: doALL

**** 04/10/25 19:46:41 **** PSpice 24.1.0 (22 October 2024) *** ID# 0 ********

 ** Profile: "SCHEMATIC1-pp_ac"  [ C:\Cadence\Pspice sim\pp_cascode-PSpiceFiles\SCHEMATIC1\pp_ac.sim ] 


 ****     SMALL SIGNAL BIAS SOLUTION       TEMPERATURE =   27.000 DEG C

 ****     Parametric Sweep Run 64          


******************************************************************************



 NODE   VOLTAGE     NODE   VOLTAGE     NODE   VOLTAGE     NODE   VOLTAGE


(  OUT)   47.5300  (N01228)    1.6854 (N01430)    2.4720 (N01866)   12.0000     

(N01936)   50.0000 (N21518)    6.7708 (N22961)    7.4687 (N26201)    1.6854     

(N26542)    0.0000 (N39220)   50.0000 (N43174)    0.0000 




    VOLTAGE SOURCE CURRENTS
    NAME         CURRENT

    V_V1        -1.162E-02
    V_V2        -8.234E-03
    V_V3         0.000E+00

    TOTAL POWER DISSIPATION   5.51E-01  WATTS

**** Param: R_R7.Value = 201.30000000000001
**** Param: R_R3.Value = 4.51000000000000k

**** Command: doALL

**** 04/10/25 19:46:41 **** PSpice 24.1.0 (22 October 2024) *** ID# 0 ********

 ** Profile: "SCHEMATIC1-pp_ac"  [ C:\Cadence\Pspice sim\pp_cascode-PSpiceFiles\SCHEMATIC1\pp_ac.sim ] 


 ****     SMALL SIGNAL BIAS SOLUTION       TEMPERATURE =   27.000 DEG C

 ****     Parametric Sweep Run 65          


******************************************************************************



 NODE   VOLTAGE     NODE   VOLTAGE     NODE   VOLTAGE     NODE   VOLTAGE


(  OUT)   48.1410  (N01228)    1.2684 (N01430)    2.0443 (N01866)   12.0000     

(N01936)   50.0000 (N21518)    6.7794 (N22961)    7.4697 (N26201)    1.2684     

(N26542)    0.0000 (N39220)   50.0000 (N43174)    0.0000 




    VOLTAGE SOURCE CURRENTS
    NAME         CURRENT

    V_V1        -1.162E-02
    V_V2        -6.198E-03
    V_V3         0.000E+00

    TOTAL POWER DISSIPATION   4.49E-01  WATTS

**** Param: R_R7.Value = 201.30000000000001
**** Param: R_R3.Value = 5.61000000000000k

**** Command: doALL

**** 04/10/25 19:46:41 **** PSpice 24.1.0 (22 October 2024) *** ID# 0 ********

 ** Profile: "SCHEMATIC1-pp_ac"  [ C:\Cadence\Pspice sim\pp_cascode-PSpiceFiles\SCHEMATIC1\pp_ac.sim ] 


 ****     SMALL SIGNAL BIAS SOLUTION       TEMPERATURE =   27.000 DEG C

 ****     Parametric Sweep Run 66          


******************************************************************************



 NODE   VOLTAGE     NODE   VOLTAGE     NODE   VOLTAGE     NODE   VOLTAGE


(  OUT)   48.5660  (N01228)     .9785 (N01430)    1.7452 (N01866)   12.0000     

(N01936)   50.0000 (N21518)    6.7869 (N22961)    7.4703 (N26201)     .9785     

(N26542)    0.0000 (N39220)   50.0000 (N43174)    0.0000 




    VOLTAGE SOURCE CURRENTS
    NAME         CURRENT

    V_V1        -1.161E-02
    V_V2        -4.781E-03
    V_V3         0.000E+00

    TOTAL POWER DISSIPATION   3.78E-01  WATTS

**** Param: R_R7.Value = 201.30000000000001
**** Param: R_R3.Value = 6.71000000000000k

**** Command: doALL

**** 04/10/25 19:46:41 **** PSpice 24.1.0 (22 October 2024) *** ID# 0 ********

 ** Profile: "SCHEMATIC1-pp_ac"  [ C:\Cadence\Pspice sim\pp_cascode-PSpiceFiles\SCHEMATIC1\pp_ac.sim ] 


 ****     SMALL SIGNAL BIAS SOLUTION       TEMPERATURE =   27.000 DEG C

 ****     Parametric Sweep Run 67          


******************************************************************************



 NODE   VOLTAGE     NODE   VOLTAGE     NODE   VOLTAGE     NODE   VOLTAGE


(  OUT)   48.8780  (N01228)     .7657 (N01430)    1.5243 (N01866)   12.0000     

(N01936)   50.0000 (N21518)    6.7939 (N22961)    7.4708 (N26201)     .7657     

(N26542)    0.0000 (N39220)   50.0000 (N43174)    0.0000 




    VOLTAGE SOURCE CURRENTS
    NAME         CURRENT

    V_V1        -1.161E-02
    V_V2        -3.741E-03
    V_V3         0.000E+00

    TOTAL POWER DISSIPATION   3.26E-01  WATTS

**** Param: R_R7.Value = 201.30000000000001
**** Param: R_R3.Value = 7.81000000000000k

**** Command: doALL

**** 04/10/25 19:46:41 **** PSpice 24.1.0 (22 October 2024) *** ID# 0 ********

 ** Profile: "SCHEMATIC1-pp_ac"  [ C:\Cadence\Pspice sim\pp_cascode-PSpiceFiles\SCHEMATIC1\pp_ac.sim ] 


 ****     SMALL SIGNAL BIAS SOLUTION       TEMPERATURE =   27.000 DEG C

 ****     Parametric Sweep Run 68          


******************************************************************************



 NODE   VOLTAGE     NODE   VOLTAGE     NODE   VOLTAGE     NODE   VOLTAGE


(  OUT)   49.1160  (N01228)     .6034 (N01430)    1.3543 (N01866)   12.0000     

(N01936)   50.0000 (N21518)    6.8005 (N22961)    7.4712 (N26201)     .6034     

(N26542)    0.0000 (N39220)   50.0000 (N43174)    0.0000 




    VOLTAGE SOURCE CURRENTS
    NAME         CURRENT

    V_V1        -1.161E-02
    V_V2        -2.948E-03
    V_V3         0.000E+00

    TOTAL POWER DISSIPATION   2.87E-01  WATTS

**** Param: R_R7.Value = 201.30000000000001
**** Param: R_R3.Value = 8.91000000000000k

**** Command: doALL

**** 04/10/25 19:46:41 **** PSpice 24.1.0 (22 October 2024) *** ID# 0 ********

 ** Profile: "SCHEMATIC1-pp_ac"  [ C:\Cadence\Pspice sim\pp_cascode-PSpiceFiles\SCHEMATIC1\pp_ac.sim ] 


 ****     SMALL SIGNAL BIAS SOLUTION       TEMPERATURE =   27.000 DEG C

 ****     Parametric Sweep Run 69          


******************************************************************************



 NODE   VOLTAGE     NODE   VOLTAGE     NODE   VOLTAGE     NODE   VOLTAGE


(  OUT)   49.3030  (N01228)     .4759 (N01430)    1.2195 (N01866)   12.0000     

(N01936)   50.0000 (N21518)    6.8070 (N22961)    7.4714 (N26201)     .4759     

(N26542)    0.0000 (N39220)   50.0000 (N43174)    0.0000 




    VOLTAGE SOURCE CURRENTS
    NAME         CURRENT

    V_V1        -1.161E-02
    V_V2        -2.325E-03
    V_V3         0.000E+00

    TOTAL POWER DISSIPATION   2.56E-01  WATTS

**** Param: R_R7.Value = 201.30000000000001
**** Param: R_R3.Value = 10.01000000000000k

**** Command: doALL

**** 04/10/25 19:46:41 **** PSpice 24.1.0 (22 October 2024) *** ID# 0 ********

 ** Profile: "SCHEMATIC1-pp_ac"  [ C:\Cadence\Pspice sim\pp_cascode-PSpiceFiles\SCHEMATIC1\pp_ac.sim ] 


 ****     SMALL SIGNAL BIAS SOLUTION       TEMPERATURE =   27.000 DEG C

 ****     Parametric Sweep Run 70          


******************************************************************************



 NODE   VOLTAGE     NODE   VOLTAGE     NODE   VOLTAGE     NODE   VOLTAGE


(  OUT)   49.4530  (N01228)     .3736 (N01430)    1.1098 (N01866)   12.0000     

(N01936)   50.0000 (N21518)    6.8136 (N22961)    7.4717 (N26201)     .3736     

(N26542)    0.0000 (N39220)   50.0000 (N43174)    0.0000 




    VOLTAGE SOURCE CURRENTS
    NAME         CURRENT

    V_V1        -1.161E-02
    V_V2        -1.825E-03
    V_V3         0.000E+00

    TOTAL POWER DISSIPATION   2.31E-01  WATTS

**** Param: R_R7.Value = 234.30000000000001
**** Param: R_R3.Value = 110

**** Command: doALL

**** 04/10/25 19:46:41 **** PSpice 24.1.0 (22 October 2024) *** ID# 0 ********

 ** Profile: "SCHEMATIC1-pp_ac"  [ C:\Cadence\Pspice sim\pp_cascode-PSpiceFiles\SCHEMATIC1\pp_ac.sim ] 


 ****     SMALL SIGNAL BIAS SOLUTION       TEMPERATURE =   27.000 DEG C

 ****     Parametric Sweep Run 71          


******************************************************************************



 NODE   VOLTAGE     NODE   VOLTAGE     NODE   VOLTAGE     NODE   VOLTAGE


(  OUT)   42.3010  (N01228)    6.1399 (N01430)    6.9873 (N01866)   12.0000     

(N01936)   50.0000 (N21518)    6.7285 (N22961)    7.4582 (N26201)    6.1399     

(N26542)    0.0000 (N39220)   50.0000 (N43174)    0.0000 




    VOLTAGE SOURCE CURRENTS
    NAME         CURRENT

    V_V1        -1.165E-02
    V_V2        -2.566E-02
    V_V3         0.000E+00

    TOTAL POWER DISSIPATION   1.42E+00  WATTS

**** Param: R_R7.Value = 234.30000000000001
**** Param: R_R3.Value = 1.21000000000000k

**** Command: doALL

**** 04/10/25 19:46:41 **** PSpice 24.1.0 (22 October 2024) *** ID# 0 ********

 ** Profile: "SCHEMATIC1-pp_ac"  [ C:\Cadence\Pspice sim\pp_cascode-PSpiceFiles\SCHEMATIC1\pp_ac.sim ] 


 ****     SMALL SIGNAL BIAS SOLUTION       TEMPERATURE =   27.000 DEG C

 ****     Parametric Sweep Run 72          


******************************************************************************



 NODE   VOLTAGE     NODE   VOLTAGE     NODE   VOLTAGE     NODE   VOLTAGE


(  OUT)   45.5780  (N01228)    3.5164 (N01430)    4.3293 (N01866)   12.0000     

(N01936)   50.0000 (N21518)    6.7508 (N22961)    7.4647 (N26201)    3.5164     

(N26542)    0.0000 (N39220)   50.0000 (N43174)    0.0000 




    VOLTAGE SOURCE CURRENTS
    NAME         CURRENT

    V_V1        -1.163E-02
    V_V2        -1.474E-02
    V_V3         0.000E+00

    TOTAL POWER DISSIPATION   8.77E-01  WATTS

**** Param: R_R7.Value = 234.30000000000001
**** Param: R_R3.Value = 2.31000000000000k

**** Command: doALL

**** 04/10/25 19:46:41 **** PSpice 24.1.0 (22 October 2024) *** ID# 0 ********

 ** Profile: "SCHEMATIC1-pp_ac"  [ C:\Cadence\Pspice sim\pp_cascode-PSpiceFiles\SCHEMATIC1\pp_ac.sim ] 


 ****     SMALL SIGNAL BIAS SOLUTION       TEMPERATURE =   27.000 DEG C

 ****     Parametric Sweep Run 73          


******************************************************************************



 NODE   VOLTAGE     NODE   VOLTAGE     NODE   VOLTAGE     NODE   VOLTAGE


(  OUT)   47.0300  (N01228)    2.3597 (N01430)    3.1541 (N01866)   12.0000     

(N01936)   50.0000 (N21518)    6.7644 (N22961)    7.4673 (N26201)    2.3597     

(N26542)    0.0000 (N39220)   50.0000 (N43174)    0.0000 




    VOLTAGE SOURCE CURRENTS
    NAME         CURRENT

    V_V1        -1.162E-02
    V_V2        -9.901E-03
    V_V3         0.000E+00

    TOTAL POWER DISSIPATION   6.35E-01  WATTS

**** Param: R_R7.Value = 234.30000000000001
**** Param: R_R3.Value = 3.41000000000000k

**** Command: doALL

**** 04/10/25 19:46:41 **** PSpice 24.1.0 (22 October 2024) *** ID# 0 ********

 ** Profile: "SCHEMATIC1-pp_ac"  [ C:\Cadence\Pspice sim\pp_cascode-PSpiceFiles\SCHEMATIC1\pp_ac.sim ] 


 ****     SMALL SIGNAL BIAS SOLUTION       TEMPERATURE =   27.000 DEG C

 ****     Parametric Sweep Run 74          


******************************************************************************



 NODE   VOLTAGE     NODE   VOLTAGE     NODE   VOLTAGE     NODE   VOLTAGE


(  OUT)   47.8530  (N01228)    1.7053 (N01430)    2.4868 (N01866)   12.0000     

(N01936)   50.0000 (N21518)    6.7746 (N22961)    7.4688 (N26201)    1.7053     

(N26542)    0.0000 (N39220)   50.0000 (N43174)    0.0000 




    VOLTAGE SOURCE CURRENTS
    NAME         CURRENT

    V_V1        -1.162E-02
    V_V2        -7.158E-03
    V_V3         0.000E+00

    TOTAL POWER DISSIPATION   4.97E-01  WATTS

**** Param: R_R7.Value = 234.30000000000001
**** Param: R_R3.Value = 4.51000000000000k

**** Command: doALL

**** 04/10/25 19:46:41 **** PSpice 24.1.0 (22 October 2024) *** ID# 0 ********

 ** Profile: "SCHEMATIC1-pp_ac"  [ C:\Cadence\Pspice sim\pp_cascode-PSpiceFiles\SCHEMATIC1\pp_ac.sim ] 


 ****     SMALL SIGNAL BIAS SOLUTION       TEMPERATURE =   27.000 DEG C

 ****     Parametric Sweep Run 75          


******************************************************************************



 NODE   VOLTAGE     NODE   VOLTAGE     NODE   VOLTAGE     NODE   VOLTAGE


(  OUT)   48.3820  (N01228)    1.2847 (N01430)    2.0558 (N01866)   12.0000     

(N01936)   50.0000 (N21518)    6.7831 (N22961)    7.4697 (N26201)    1.2847     

(N26542)    0.0000 (N39220)   50.0000 (N43174)    0.0000 




[...]

**** Param: R_R7.Value = 267.30000000000001
**** Param: R_R3.Value = 110

**** Command: doALL

**** 04/10/25 19:46:41 **** PSpice 24.1.0 (22 October 2024) *** ID# 0 ********

 ** Profile: "SCHEMATIC1-pp_ac"  [ C:\Cadence\Pspice sim\pp_cascode-PSpiceFiles\SCHEMATIC1\pp_ac.sim ] 


 ****     SMALL SIGNAL BIAS SOLUTION       TEMPERATURE =   27.000 DEG C

 ****     Parametric Sweep Run 81          


******************************************************************************



 NODE   VOLTAGE     NODE   VOLTAGE     NODE   VOLTAGE     NODE   VOLTAGE


(  OUT)   43.2340  (N01228)    6.1540 (N01430)    6.9934 (N01866)   12.0000     

(N01936)   50.0000 (N21518)    6.7325 (N22961)    7.4585 (N26201)    6.1540     

(N26542)    0.0000 (N39220)   50.0000 (N43174)    0.0000 




    VOLTAGE SOURCE CURRENTS
    NAME         CURRENT

    V_V1        -1.164E-02
    V_V2        -2.255E-02
    V_V3         0.000E+00

    TOTAL POWER DISSIPATION   1.27E+00  WATTS

**** Param: R_R7.Value = 267.30000000000001
**** Param: R_R3.Value = 1.21000000000000k

**** Command: doALL

**** 04/10/25 19:46:41 **** PSpice 24.1.0 (22 October 2024) *** ID# 0 ********

 ** Profile: "SCHEMATIC1-pp_ac"  [ C:\Cadence\Pspice sim\pp_cascode-PSpiceFiles\SCHEMATIC1\pp_ac.sim ] 


 ****     SMALL SIGNAL BIAS SOLUTION       TEMPERATURE =   27.000 DEG C

 ****     Parametric Sweep Run 82          


******************************************************************************



 NODE   VOLTAGE     NODE   VOLTAGE     NODE   VOLTAGE     NODE   VOLTAGE


(  OUT)   46.0980  (N01228)    3.5394 (N01430)    4.3467 (N01866)   12.0000     

(N01936)   50.0000 (N21518)    6.7544 (N22961)    7.4648 (N26201)    3.5394     

(N26542)    0.0000 (N39220)   50.0000 (N43174)    0.0000 




    VOLTAGE SOURCE CURRENTS
    NAME         CURRENT

    V_V1        -1.163E-02
    V_V2        -1.301E-02
    V_V3         0.000E+00

    TOTAL POWER DISSIPATION   7.90E-01  WATTS

**** Param: R_R7.Value = 267.30000000000001
**** Param: R_R3.Value = 2.31000000000000k

**** Command: doALL

**** 04/10/25 19:46:41 **** PSpice 24.1.0 (22 October 2024) *** ID# 0 ********

 ** Profile: "SCHEMATIC1-pp_ac"  [ C:\Cadence\Pspice sim\pp_cascode-PSpiceFiles\SCHEMATIC1\pp_ac.sim ] 


 ****     SMALL SIGNAL BIAS SOLUTION       TEMPERATURE =   27.000 DEG C

 ****     Parametric Sweep Run 83          


******************************************************************************



 NODE   VOLTAGE     NODE   VOLTAGE     NODE   VOLTAGE     NODE   VOLTAGE


(  OUT)   47.3750  (N01228)    2.3788 (N01430)    3.1685 (N01866)   12.0000     

(N01936)   50.0000 (N21518)    6.7678 (N22961)    7.4674 (N26201)    2.3788     

(N26542)    0.0000 (N39220)   50.0000 (N43174)    0.0000 




    VOLTAGE SOURCE CURRENTS
    NAME         CURRENT

    V_V1        -1.162E-02
    V_V2        -8.749E-03
    V_V3         0.000E+00

    TOTAL POWER DISSIPATION   5.77E-01  WATTS

**** Param: R_R7.Value = 267.30000000000001
**** Param: R_R3.Value = 3.41000000000000k

**** Command: doALL

**** 04/10/25 19:46:41 **** PSpice 24.1.0 (22 October 2024) *** ID# 0 ********

 ** Profile: "SCHEMATIC1-pp_ac"  [ C:\Cadence\Pspice sim\pp_cascode-PSpiceFiles\SCHEMATIC1\pp_ac.sim ] 


 ****     SMALL SIGNAL BIAS SOLUTION       TEMPERATURE =   27.000 DEG C

 ****     Parametric Sweep Run 84          


******************************************************************************



 NODE   VOLTAGE     NODE   VOLTAGE     NODE   VOLTAGE     NODE   VOLTAGE


(  OUT)   48.1010  (N01228)    1.7209 (N01430)    2.4980 (N01866)   12.0000     

(N01936)   50.0000 (N21518)    6.7779 (N22961)    7.4688 (N26201)    1.7209     

(N26542)    0.0000 (N39220)   50.0000 (N43174)    0.0000 




    VOLTAGE SOURCE CURRENTS
    NAME         CURRENT

    V_V1        -1.162E-02
    V_V2        -6.331E-03
    V_V3         0.000E+00

    TOTAL POWER DISSIPATION   4.56E-01  WATTS

**** Param: R_R7.Value = 267.30000000000001
**** Param: R_R3.Value = 4.51000000000000k

**** Command: doALL

**** 04/10/25 19:46:41 **** PSpice 24.1.0 (22 October 2024) *** ID# 0 ********

 ** Profile: "SCHEMATIC1-pp_ac"  [ C:\Cadence\Pspice sim\pp_cascode-PSpiceFiles\SCHEMATIC1\pp_ac.sim ] 


 ****     SMALL SIGNAL BIAS SOLUTION       TEMPERATURE =   27.000 DEG C

 ****     Parametric Sweep Run 85          


******************************************************************************



 NODE   VOLTAGE     NODE   VOLTAGE     NODE   VOLTAGE     NODE   VOLTAGE


(  OUT)   48.5680  (N01228)    1.2976 (N01430)    2.0646 (N01866)   12.0000     

(N01936)   50.0000 (N21518)    6.7864 (N22961)    7.4697 (N26201)    1.2976     

(N26542)    0.0000 (N39220)   50.0000 (N43174)    0.0000 




    VOLTAGE SOURCE CURRENTS
    NAME         CURRENT

    V_V1        -1.162E-02
    V_V2        -4.774E-03
    V_V3         0.000E+00

    TOTAL POWER DISSIPATION   3.78E-01  WATTS

**** Param: R_R7.Value = 267.30000000000001
**** Param: R_R3.Value = 5.61000000000000k

**** Command: doALL

**** 04/10/25 19:46:41 **** PSpice 24.1.0 (22 October 2024) *** ID# 0 ********

 ** Profile: "SCHEMATIC1-pp_ac"  [ C:\Cadence\Pspice sim\pp_cascode-PSpiceFiles\SCHEMATIC1\pp_ac.sim ] 


 ****     SMALL SIGNAL BIAS SOLUTION       TEMPERATURE =   27.000 DEG C

 ****     Parametric Sweep Run 86          


******************************************************************************



 NODE   VOLTAGE     NODE   VOLTAGE     NODE   VOLTAGE     NODE   VOLTAGE


(  OUT)   48.8930  (N01228)    1.0029 (N01430)    1.7613 (N01866)   12.0000     

(N01936)   50.0000 (N21518)    6.7938 (N22961)    7.4704 (N26201)    1.0029     

(N26542)    0.0000 (N39220)   50.0000 (N43174)    0.0000 




    VOLTAGE SOURCE CURRENTS
    NAME         CURRENT

    V_V1        -1.161E-02
    V_V2        -3.690E-03
    V_V3         0.000E+00

    TOTAL POWER DISSIPATION   3.24E-01  WATTS

**** Param: R_R7.Value = 267.30000000000001
**** Param: R_R3.Value = 6.71000000000000k

**** Command: doALL

**** 04/10/25 19:46:41 **** PSpice 24.1.0 (22 October 2024) *** ID# 0 ********

 ** Profile: "SCHEMATIC1-pp_ac"  [ C:\Cadence\Pspice sim\pp_cascode-PSpiceFiles\SCHEMATIC1\pp_ac.sim ] 


 ****     SMALL SIGNAL BIAS SOLUTION       TEMPERATURE =   27.000 DEG C

 ****     Parametric Sweep Run 87          


******************************************************************************



 NODE   VOLTAGE     NODE   VOLTAGE     NODE   VOLTAGE     NODE   VOLTAGE


(  OUT)   49.1320  (N01228)     .7865 (N01430)    1.5370 (N01866)   12.0000     

(N01936)   50.0000 (N21518)    6.8007 (N22961)    7.4708 (N26201)     .7865     

(N26542)    0.0000 (N39220)   50.0000 (N43174)    0.0000 




    VOLTAGE SOURCE CURRENTS
    NAME         CURRENT

    V_V1        -1.161E-02
    V_V2        -2.893E-03
    V_V3         0.000E+00

    TOTAL POWER DISSIPATION   2.84E-01  WATTS

**** Param: R_R7.Value = 267.30000000000001
**** Param: R_R3.Value = 7.81000000000000k

**** Command: doALL

**** 04/10/25 19:46:41 **** PSpice 24.1.0 (22 October 2024) *** ID# 0 ********

 ** Profile: "SCHEMATIC1-pp_ac"  [ C:\Cadence\Pspice sim\pp_cascode-PSpiceFiles\SCHEMATIC1\pp_ac.sim ] 


 ****     SMALL SIGNAL BIAS SOLUTION       TEMPERATURE =   27.000 DEG C

 ****     Parametric Sweep Run 88          


******************************************************************************



 NODE   VOLTAGE     NODE   VOLTAGE     NODE   VOLTAGE     NODE   VOLTAGE


(  OUT)   49.3140  (N01228)     .6212 (N01430)    1.3644 (N01866)   12.0000     

(N01936)   50.0000 (N21518)    6.8072 (N22961)    7.4712 (N26201)     .6212     

(N26542)    0.0000 (N39220)   50.0000 (N43174)    0.0000 




    VOLTAGE SOURCE CURRENTS
    NAME         CURRENT

    V_V1        -1.161E-02
    V_V2        -2.285E-03
    V_V3         0.000E+00

    TOTAL POWER DISSIPATION   2.54E-01  WATTS

**** Param: R_R7.Value = 267.30000000000001
**** Param: R_R3.Value = 8.91000000000000k

**** Command: doALL

**** 04/10/25 19:46:41 **** PSpice 24.1.0 (22 October 2024) *** ID# 0 ********

 ** Profile: "SCHEMATIC1-pp_ac"  [ C:\Cadence\Pspice sim\pp_cascode-PSpiceFiles\SCHEMATIC1\pp_ac.sim ] 


 ****     SMALL SIGNAL BIAS SOLUTION       TEMPERATURE =   27.000 DEG C

 ****     Parametric Sweep Run 89          


******************************************************************************



 NODE   VOLTAGE     NODE   VOLTAGE     NODE   VOLTAGE     NODE   VOLTAGE


(  OUT)   49.4580  (N01228)     .4914 (N01430)    1.2274 (N01866)   12.0000     

(N01936)   50.0000 (N21518)    6.8136 (N22961)    7.4715 (N26201)     .4914     

(N26542)    0.0000 (N39220)   50.0000 (N43174)    0.0000 




    VOLTAGE SOURCE CURRENTS
    NAME         CURRENT

    V_V1        -1.161E-02
    V_V2        -1.807E-03
    V_V3         0.000E+00

    TOTAL POWER DISSIPATION   2.30E-01  WATTS

**** Param: R_R7.Value = 267.30000000000001
**** Param: R_R3.Value = 10.01000000000000k

**** Command: doALL

**** 04/10/25 19:46:41 **** PSpice 24.1.0 (22 October 2024) *** ID# 0 ********

 ** Profile: "SCHEMATIC1-pp_ac"  [ C:\Cadence\Pspice sim\pp_cascode-PSpiceFiles\SCHEMATIC1\pp_ac.sim ] 


 ****     SMALL SIGNAL BIAS SOLUTION       TEMPERATURE =   27.000 DEG C

 ****     Parametric Sweep Run 90          


******************************************************************************



 NODE   VOLTAGE     NODE   VOLTAGE     NODE   VOLTAGE     NODE   VOLTAGE


(  OUT)   49.5730  (N01228)     .3872 (N01430)    1.1161 (N01866)   12.0000     

(N01936)   50.0000 (N21518)    6.8201 (N22961)    7.4717 (N26201)     .3872     

(N26542)    0.0000 (N39220)   50.0000 (N43174)    0.0000 




    VOLTAGE SOURCE CURRENTS
    NAME         CURRENT

    V_V1        -1.161E-02
    V_V2        -1.423E-03
    V_V3         0.000E+00

    TOTAL POWER DISSIPATION   2.11E-01  WATTS

**** Param: R_R7.Value = 300.30000000000001
**** Param: R_R3.Value = 110

**** Command: doALL

**** 04/10/25 19:46:41 **** PSpice 24.1.0 (22 October 2024) *** ID# 0 ********

 ** Profile: "SCHEMATIC1-pp_ac"  [ C:\Cadence\Pspice sim\pp_cascode-PSpiceFiles\SCHEMATIC1\pp_ac.sim ] 


 ****     SMALL SIGNAL BIAS SOLUTION       TEMPERATURE =   27.000 DEG C

 ****     Parametric Sweep Run 91          


******************************************************************************



 NODE   VOLTAGE     NODE   VOLTAGE     NODE   VOLTAGE     NODE   VOLTAGE


(  OUT)   43.9640  (N01228)    6.1651 (N01430)    6.9981 (N01866)   12.0000     

(N01936)   50.0000 (N21518)    6.7360 (N22961)    7.4587 (N26201)    6.1651     

(N26542)    0.0000 (N39220)   50.0000 (N43174)    0.0000 




    VOLTAGE SOURCE CURRENTS
    NAME         CURRENT

    V_V1        -1.164E-02
    V_V2        -2.012E-02
    V_V3         0.000E+00

    TOTAL POWER DISSIPATION   1.15E+00  WATTS

**** Param: R_R7.Value = 300.30000000000001
**** Param: R_R3.Value = 1.21000000000000k

**** Command: doALL

**** 04/10/25 19:46:41 **** PSpice 24.1.0 (22 October 2024) *** ID# 0 ********

 ** Profile: "SCHEMATIC1-pp_ac"  [ C:\Cadence\Pspice sim\pp_cascode-PSpiceFiles\SCHEMATIC1\pp_ac.sim ] 


 ****     SMALL SIGNAL BIAS SOLUTION       TEMPERATURE =   27.000 DEG C

 ****     Parametric Sweep Run 92          


******************************************************************************



 NODE   VOLTAGE     NODE   VOLTAGE     NODE   VOLTAGE     NODE   VOLTAGE


(  OUT)   46.5090  (N01228)    3.5576 (N01430)    4.3601 (N01866)   12.0000     

(N01936)   50.0000 (N21518)    6.7575 (N22961)    7.4648 (N26201)    3.5576     

(N26542)    0.0000 (N39220)   50.0000 (N43174)    0.0000 




    VOLTAGE SOURCE CURRENTS
    NAME         CURRENT

    V_V1        -1.163E-02
    V_V2        -1.164E-02
    V_V3         0.000E+00

    TOTAL POWER DISSIPATION   7.21E-01  WATTS

**** Param: R_R7.Value = 300.30000000000001
**** Param: R_R3.Value = 2.31000000000000k

**** Command: doALL

**** 04/10/25 19:46:41 **** PSpice 24.1.0 (22 October 2024) *** ID# 0 ********

 ** Profile: "SCHEMATIC1-pp_ac"  [ C:\Cadence\Pspice sim\pp_cascode-PSpiceFiles\SCHEMATIC1\pp_ac.sim ] 


 ****     SMALL SIGNAL BIAS SOLUTION       TEMPERATURE =   27.000 DEG C

 ****     Parametric Sweep Run 93          


******************************************************************************



 NODE   VOLTAGE     NODE   VOLTAGE     NODE   VOLTAGE     NODE   VOLTAGE


(  OUT)   47.6490  (N01228)    2.3941 (N01430)    3.1796 (N01866)   12.0000     

(N01936)   50.0000 (N21518)    6.7708 (N22961)    7.4674 (N26201)    2.3941     

(N26542)    0.0000 (N39220)   50.0000 (N43174)    0.0000 




    VOLTAGE SOURCE CURRENTS
    NAME         CURRENT

    V_V1        -1.162E-02
    V_V2        -7.838E-03
    V_V3         0.000E+00

    TOTAL POWER DISSIPATION   5.31E-01  WATTS

**** Param: R_R7.Value = 300.30000000000001
**** Param: R_R3.Value = 3.41000000000000k

**** Command: doALL

**** 04/10/25 19:46:41 **** PSpice 24.1.0 (22 October 2024) *** ID# 0 ********

 ** Profile: "SCHEMATIC1-pp_ac"  [ C:\Cadence\Pspice sim\pp_cascode-PSpiceFiles\SCHEMATIC1\pp_ac.sim ] 


 ****     SMALL SIGNAL BIAS SOLUTION       TEMPERATURE =   27.000 DEG C

 ****     Parametric Sweep Run 94          


******************************************************************************



 NODE   VOLTAGE     NODE   VOLTAGE     NODE   VOLTAGE     NODE   VOLTAGE


(  OUT)   48.2970  (N01228)    1.7334 (N01430)    2.5068 (N01866)   12.0000     

(N01936)   50.0000 (N21518)    6.7809 (N22961)    7.4688 (N26201)    1.7334     

(N26542)    0.0000 (N39220)   50.0000 (N43174)    0.0000 




    VOLTAGE SOURCE CURRENTS
    NAME         CURRENT

    V_V1        -1.162E-02
    V_V2        -5.677E-03
    V_V3         0.000E+00

    TOTAL POWER DISSIPATION   4.23E-01  WATTS

**** Param: R_R7.Value = 300.30000000000001
**** Param: R_R3.Value = 4.51000000000000k

**** Command: doALL

**** 04/10/25 19:46:41 **** PSpice 24.1.0 (22 October 2024) *** ID# 0 ********

 ** Profile: "SCHEMATIC1-pp_ac"  [ C:\Cadence\Pspice sim\pp_cascode-PSpiceFiles\SCHEMATIC1\pp_ac.sim ] 


 ****     SMALL SIGNAL BIAS SOLUTION       TEMPERATURE =   27.000 DEG C

 ****     Parametric Sweep Run 95          


******************************************************************************



 NODE   VOLTAGE     NODE   VOLTAGE     NODE   VOLTAGE     NODE   VOLTAGE


(  OUT)   48.7150  (N01228)    1.3080 (N01430)    2.0715 (N01866)   12.0000     

(N01936)   50.0000 (N21518)    6.7892 (N22961)    7.4697 (N26201)    1.3080     

(N26542)    0.0000 (N39220)   50.0000 (N43174)    0.0000 




    VOLTAGE SOURCE CURRENTS
    NAME         CURRENT

    V_V1        -1.162E-02
    V_V2        -4.284E-03
    V_V3         0.000E+00

    TOTAL POWER DISSIPATION   3.54E-01  WATTS

**** Param: R_R7.Value = 300.30000000000001
**** Param: R_R3.Value = 5.61000000000000k

**** Command: doALL

**** 04/10/25 19:46:41 **** PSpice 24.1.0 (22 October 2024) *** ID# 0 ********

 ** Profile: "SCHEMATIC1-pp_ac"  [ C:\Cadence\Pspice sim\pp_cascode-PSpiceFiles\SCHEMATIC1\pp_ac.sim ] 


 ****     SMALL SIGNAL BIAS SOLUTION       TEMPERATURE =   27.000 DEG C

 ****     Parametric Sweep Run 96          


******************************************************************************



 NODE   VOLTAGE     NODE   VOLTAGE     NODE   VOLTAGE     NODE   VOLTAGE


(  OUT)   49.0060  (N01228)    1.0118 (N01430)    1.7668 (N01866)   12.0000     

(N01936)   50.0000 (N21518)    6.7966 (N22961)    7.4704 (N26201)    1.0118     

(N26542)    0.0000 (N39220)   50.0000 (N43174)    0.0000 




    VOLTAGE SOURCE CURRENTS
    NAME         CURRENT

    V_V1        -1.161E-02
    V_V2        -3.313E-03
    V_V3         0.000E+00

    TOTAL POWER DISSIPATION   3.05E-01  WATTS

**** Param: R_R7.Value = 300.30000000000001
**** Param: R_R3.Value = 6.71000000000000k

**** Command: doALL

**** 04/10/25 19:46:41 **** PSpice 24.1.0 (22 October 2024) *** ID# 0 ********

 ** Profile: "SCHEMATIC1-pp_ac"  [ C:\Cadence\Pspice sim\pp_cascode-PSpiceFiles\SCHEMATIC1\pp_ac.sim ] 


 ****     SMALL SIGNAL BIAS SOLUTION       TEMPERATURE =   27.000 DEG C

 ****     Parametric Sweep Run 97          


******************************************************************************



 NODE   VOLTAGE     NODE   VOLTAGE     NODE   VOLTAGE     NODE   VOLTAGE


(  OUT)   49.2200  (N01228)     .7941 (N01430)    1.5414 (N01866)   12.0000     

(N01936)   50.0000 (N21518)    6.8035 (N22961)    7.4708 (N26201)     .7941     

(N26542)    0.0000 (N39220)   50.0000 (N43174)    0.0000 




    VOLTAGE SOURCE CURRENTS
    NAME         CURRENT

    V_V1        -1.161E-02
    V_V2        -2.600E-03
    V_V3         0.000E+00

    TOTAL POWER DISSIPATION   2.69E-01  WATTS

**** Param: R_R7.Value = 300.30000000000001
**** Param: R_R3.Value = 7.81000000000000k

**** Command: doALL

**** 04/10/25 19:46:41 **** PSpice 24.1.0 (22 October 2024) *** ID# 0 ********

 ** Profile: "SCHEMATIC1-pp_ac"  [ C:\Cadence\Pspice sim\pp_cascode-PSpiceFiles\SCHEMATIC1\pp_ac.sim ] 


 ****     SMALL SIGNAL BIAS SOLUTION       TEMPERATURE =   27.000 DEG C

 ****     Parametric Sweep Run 98          


******************************************************************************



 NODE   VOLTAGE     NODE   VOLTAGE     NODE   VOLTAGE     NODE   VOLTAGE


(  OUT)   49.3830  (N01228)     .6279 (N01430)    1.3679 (N01866)   12.0000     

(N01936)   50.0000 (N21518)    6.8100 (N22961)    7.4712 (N26201)     .6279     

(N26542)    0.0000 (N39220)   50.0000 (N43174)    0.0000 




    VOLTAGE SOURCE CURRENTS
    NAME         CURRENT

    V_V1        -1.161E-02
    V_V2        -2.056E-03
    V_V3         0.000E+00

    TOTAL POWER DISSIPATION   2.42E-01  WATTS

**** Param: R_R7.Value = 300.30000000000001
**** Param: R_R3.Value = 8.91000000000000k

**** Command: doALL

**** 04/10/25 19:46:41 **** PSpice 24.1.0 (22 October 2024) *** ID# 0 ********

 ** Profile: "SCHEMATIC1-pp_ac"  [ C:\Cadence\Pspice sim\pp_cascode-PSpiceFiles\SCHEMATIC1\pp_ac.sim ] 


 ****     SMALL SIGNAL BIAS SOLUTION       TEMPERATURE =   27.000 DEG C

 ****     Parametric Sweep Run 99          


******************************************************************************



 NODE   VOLTAGE     NODE   VOLTAGE     NODE   VOLTAGE     NODE   VOLTAGE


(  OUT)   49.5120  (N01228)     .4973 (N01430)    1.2302 (N01866)   12.0000     

(N01936)   50.0000 (N21518)    6.8164 (N22961)    7.4715 (N26201)     .4973     

(N26542)    0.0000 (N39220)   50.0000 (N43174)    0.0000 




    VOLTAGE SOURCE CURRENTS
    NAME         CURRENT

    V_V1        -1.161E-02
    V_V2        -1.627E-03
    V_V3         0.000E+00

    TOTAL POWER DISSIPATION   2.21E-01  WATTS

**** Param: R_R7.Value = 300.30000000000001
**** Param: R_R3.Value = 10.01000000000000k

**** Command: doALL

**** 04/10/25 19:46:41 **** PSpice 24.1.0 (22 October 2024) *** ID# 0 ********

 ** Profile: "SCHEMATIC1-pp_ac"  [ C:\Cadence\Pspice sim\pp_cascode-PSpiceFiles\SCHEMATIC1\pp_ac.sim ] 


 ****     SMALL SIGNAL BIAS SOLUTION       TEMPERATURE =   27.000 DEG C

 ****     Parametric Sweep Run 100         


******************************************************************************



 NODE   VOLTAGE     NODE   VOLTAGE     NODE   VOLTAGE     NODE   VOLTAGE


(  OUT)   49.6150  (N01228)     .3924 (N01430)    1.1182 (N01866)   12.0000     

(N01936)   50.0000 (N21518)    6.8228 (N22961)    7.4717 (N26201)     .3924     

(N26542)    0.0000 (N39220)   50.0000 (N43174)    0.0000 




    VOLTAGE SOURCE CURRENTS
    NAME         CURRENT

    V_V1        -1.161E-02
    V_V2        -1.284E-03
    V_V3         0.000E+00

    TOTAL POWER DISSIPATION   2.04E-01  WATTS


**** Command: FINISH

**** 04/10/25 19:46:41 **** PSpice 24.1.0 (22 October 2024) *** ID# 0 ********

 ** Profile: "SCHEMATIC1-pp_ac"  [ C:\Cadence\Pspice sim\pp_cascode-PSpiceFiles\SCHEMATIC1\pp_ac.sim ] 


 ****     JOB STATISTICS SUMMARY


******************************************************************************



  Total job time (using Solver 1)   =        3.16
