
**** 02/18/25 13:22:45 **** PSpice 24.1.0 (22 October 2024) *** ID# 0 ********

 *Wheatstone Bridge


 ****     CIRCUIT DESCRIPTION


******************************************************************************



VIN 1 0 10.0VOLT
R1 1 2 2.0ohm
V1 21 2 0
R2 1 3 1ohm
V3 2 22 0
R3 2 0 1ohm
R4 3 0 2ohm
R5 2 3 2ohm
V5 23 2 0
.dc vin 1 2 0.1
.print dc V(VIN) I(r1) I(r2) 
.END

**** 02/18/25 13:22:45 **** PSpice 24.1.0 (22 October 2024) *** ID# 0 ********

 *Wheatstone Bridge


 ****     DC TRANSFER CURVES               TEMPERATURE =   27.000 DEG C


******************************************************************************



  VIN         V(VIN)      I(r1)       I(r2)       

   1.000E+00   1.000E+00   3.000E-01   4.000E-01
   1.100E+00   1.100E+00   3.300E-01   4.400E-01
   1.200E+00   1.200E+00   3.600E-01   4.800E-01
   1.300E+00   1.300E+00   3.900E-01   5.200E-01
   1.400E+00   1.400E+00   4.200E-01   5.600E-01
   1.500E+00   1.500E+00   4.500E-01   6.000E-01
   1.600E+00   1.600E+00   4.800E-01   6.400E-01
   1.700E+00   1.700E+00   5.100E-01   6.800E-01
   1.800E+00   1.800E+00   5.400E-01   7.200E-01
   1.900E+00   1.900E+00   5.700E-01   7.600E-01
   2.000E+00   2.000E+00   6.000E-01   8.000E-01




          JOB CONCLUDED

**** 02/18/25 13:22:45 **** PSpice 24.1.0 (22 October 2024) *** ID# 0 ********

 *Wheatstone Bridge


 ****     JOB STATISTICS SUMMARY


******************************************************************************



  Total job time (using Solver 1)   =         .02
