
**** 01/08/25 10:27:14 **** PSpice 24.1.0 (22 October 2024) *** ID# 0 ********

 ** Profile: "SCHEMATIC1-RC_DC"  [ C:\Cadence\Pspice sim\RC-PSpiceFiles\SCHEMATIC1\RC_DC.sim ] 


 ****     CIRCUIT DESCRIPTION


******************************************************************************




** Creating circuit file "RC_DC.cir" 
** WARNING: THIS AUTOMATICALLY GENERATED FILE MAY BE OVERWRITTEN BY SUBSEQUENT SIMULATIONS

*Libraries: 
* Profile Libraries :
* Local Libraries :
* From [PSPICE NETLIST] section of C:\Users\ROG\AppData\Roaming\SPB_Data\cdssetup\OrCAD_PSpice\24.1.0\PSpice.ini file:
.lib "nom.lib" 

*Analysis directives: 
.DC LIN V_V1 0 10 1 
.OPTIONS ADVCONV
.PROBE64 V(*) I(*) W(*) D(*) NOISE(*) 
.INC "..\SCHEMATIC1.net" 



**** INCLUDING SCHEMATIC1.net ****
* source RC
V_V1         IN 0 10
R_R1         IN OUT  1k TC=0,0 
R_R2         0 OUT  1k TC=0,0 
C_CAP1         OUT 0  1n  TC=0,0 

**** RESUMING RC_DC.cir ****
.END


          JOB CONCLUDED

**** 01/08/25 10:27:14 **** PSpice 24.1.0 (22 October 2024) *** ID# 0 ********

 ** Profile: "SCHEMATIC1-RC_DC"  [ C:\Cadence\Pspice sim\RC-PSpiceFiles\SCHEMATIC1\RC_DC.sim ] 


 ****     JOB STATISTICS SUMMARY


******************************************************************************



  Total job time (using Solver 1)   =         .08
