**** Analysis Setup ****

**** 04/09/25 14:43:48 **** PSpice 24.1.0 (22 October 2024) *** ID# 0 ********

 ** Profile: "SCHEMATIC1-AC"  [ C:\Cadence\Pspice sim\mc_cascode-PSpiceFiles\SCHEMATIC1\AC.sim ] 


 ****     CIRCUIT DESCRIPTION


******************************************************************************




** Creating circuit file "AC.cir" 
** WARNING: THIS AUTOMATICALLY GENERATED FILE MAY BE OVERWRITTEN BY SUBSEQUENT SIMULATIONS

*Libraries: 
* Profile Libraries :
* Local Libraries :
.LIB "../../../mc_cascode-pspicefiles/mc_cascode.lib" 
* From [PSPICE NETLIST] section of C:\Users\ROG\AppData\Roaming\SPB_Data\cdssetup\OrCAD_PSpice\24.1.0\PSpice.ini file:
.lib "nom.lib" 

*Analysis directives: 
.AC DEC 100 1Meg 600Meg
.OPTIONS ADVCONV
.PROBE64 V(alias(*)) I(alias(*)) W(alias(*)) D(alias(*)) NOISE(alias(*)) 
.INC "..\SCHEMATIC1.net" 



**** INCLUDING SCHEMATIC1.net ****
* source MC_CASCODE
V_V1         N01866 0 12Vdc
V_V2         N01936 0 50
V_V3         N26542 0  AC 1
+SIN 0 1 5 0 0 0
D_D1         0 N22961 D1N755 
R_R2         N01866 N22961 R_R2 390 TC=0,0 
.model        R_R2 RES R=1     DEV/GAUSS 10%/10% TC1=0 TC2=0
C_C1         0 N22961 C_C1 3300u  TC=0,0 
.model        C_C1 CAP C=1     DEV 10%/10% TC1=0 TC2=0 VC1=0 VC2=0
R_R3         N01430 N22961 R_R3 1.1K TC=0,0 
.model        R_R3 RES R=1     DEV/GAUSS 20%/20% TC1=0 TC2=0
R_R1         OUT N39220 R_R1 300 TC=0,0 
.model        R_R1 RES R=1     DEV/GAUSS 10%/10% TC1=0 TC2=0
L_L1         N39220 N01936 L_L1 .22u  
.model        l_L1 IND L=1     DEV 0/0% TC1=0 TC2=0 IL1=0 IL2=0
R_R4         N26542 N43174 R_R4 75 TC=0,0 
.model        R_R4 RES R=1     DEV 0%/0% TC1=0 TC2=0
C_C2         N43174 N01430 C_C2 330u  TC=0,0 
.model        C_C2 CAP C=1     DEV 20/20% TC1=0 TC2=0 VC1=0 VC2=0
C_C3         0 N26201 C_C3 15p  TC=0,0 
.model        C_C3 CAP C=1     DEV 10%/10% TC1=0 TC2=0 VC1=0 VC2=0
R_R5         N01228 N26201 R_R5 68 TC=0,0 
.model        R_R5 RES R=1     DEV/GAUSS 10%/10% TC1=0 TC2=0
R_R6         0 N01430 R_R6 1.8K TC=0,0 
.model        R_R6 RES R=1     DEV/GAUSS 10%/10% TC1=0 TC2=0
R_R7         0 N01228 R_R7 33 TC=0,0 
.model        R_R7 RES R=1     DEV/GAUSS 10%/10% TC1=0 TC2=0
X_Q1         OUT N22961 N21518 awb2n3724 PARAMS:                               
+              
X_Q2         N21518 N01430 N01228 awb2n5179 PARAMS:                            
+                 

**** RESUMING AC.cir ****
.END

**** 04/09/25 14:43:48 **** PSpice 24.1.0 (22 October 2024) *** ID# 0 ********

 ** Profile: "SCHEMATIC1-AC"  [ C:\Cadence\Pspice sim\mc_cascode-PSpiceFiles\SCHEMATIC1\AC.sim ] 


 ****     Diode MODEL PARAMETERS


******************************************************************************




               D1N755          
          IS    2.077000E-15 
         ISR    1.645000E-09 
          BV    7.5          
         IBV    2.5701       
         NBV     .39227      
        IBVL   40.222000E-06 
        NBVL     .25042      
          RS    2.467        
         CJO  104.000000E-12 
          VJ     .75         
           M     .5061       
        TBV1  533.330000E-06 


**** 04/09/25 14:43:48 **** PSpice 24.1.0 (22 October 2024) *** ID# 0 ********

 ** Profile: "SCHEMATIC1-AC"  [ C:\Cadence\Pspice sim\mc_cascode-PSpiceFiles\SCHEMATIC1\AC.sim ] 


 ****     BJT MODEL PARAMETERS


******************************************************************************




               X_Q1.model4     X_Q2.model4     
               NPN             NPN             
       LEVEL    1               1            
          IS   10.000000E-15    4.479000E-15 
          EG    1.11            1.11         
          BF  138              83            
          NF    1               1.07         
         VAF   65              24            
         IKF     .371            .1          
         ISE   29.400000E-12  347.100000E-12 
          NE    2.1335          3.66         
          BR    1               1            
          NR    1               1.07         
         VAR   50             500            
         IKR     .08                         
          NC                    1            
         ISS    0               0            
          RB    1              36            
         RBM    1              36            
          RE     .01             .5          
          RC     .42            1            
         CJE   63.340000E-12  910.000000E-15 
         VJE     .55             .661        
         MJE     .3546           .294        
         CJC   12.460000E-12  835.000000E-15 
         VJC     .55            1            
         MJC     .2977           .28         
        XCJC     .5              .5          
         CJS    0               0            
         VJS     .7              .7          
         MJS     .5              .5          
          TF  438.100000E-12  112.000000E-12 
         XTF    5                .12         
         VTF   10                            
         ITF    7                            
          TR   77.300000E-09    1.000000E-09 
         XTB    1.5815          2.3          
          KF    0               0            
          AF    1               1            
          CN    2.42            2.42         
           D     .87             .87         


**** 04/09/25 14:43:48 **** PSpice 24.1.0 (22 October 2024) *** ID# 0 ********

 ** Profile: "SCHEMATIC1-AC"  [ C:\Cadence\Pspice sim\mc_cascode-PSpiceFiles\SCHEMATIC1\AC.sim ] 


 ****     Resistor MODEL PARAMETERS


******************************************************************************




               R_R2            R_R3            R_R1            R_R4            
           R    1               1               1               1            


               R_R5            R_R6            R_R7            
           R    1               1               1            


**** 04/09/25 14:43:48 **** PSpice 24.1.0 (22 October 2024) *** ID# 0 ********

 ** Profile: "SCHEMATIC1-AC"  [ C:\Cadence\Pspice sim\mc_cascode-PSpiceFiles\SCHEMATIC1\AC.sim ] 


 ****     Capacitor MODEL PARAMETERS


******************************************************************************




               C_C1            C_C2            C_C3            
           C    1               1               1            


**** 04/09/25 14:43:48 **** PSpice 24.1.0 (22 October 2024) *** ID# 0 ********

 ** Profile: "SCHEMATIC1-AC"  [ C:\Cadence\Pspice sim\mc_cascode-PSpiceFiles\SCHEMATIC1\AC.sim ] 


 ****     Inductor MODEL PARAMETERS


******************************************************************************




               L_L1            
           L    1            

**** Param: R_R2.Value = 390
**** Param: C_C1.Value = 3300u
**** Param: R_R3.Value = 1.1K
**** Param: R_R1.Value = 300
**** Param: C_C2.Value = 330u
**** Param: C_C3.Value = 15p
**** Param: R_R5.Value = 68
**** Param: R_R6.Value = 1.8K
**** Param: R_R7.Value = 33
**** Param: D1N755(model).bv = 7.5

**** Command: doALL

**** 04/09/25 14:43:48 **** PSpice 24.1.0 (22 October 2024) *** ID# 0 ********

 ** Profile: "SCHEMATIC1-AC"  [ C:\Cadence\Pspice sim\mc_cascode-PSpiceFiles\SCHEMATIC1\AC.sim ] 


 ****     SMALL SIGNAL BIAS SOLUTION       TEMPERATURE =   27.000 DEG C

 ****     Monte Carlo run 1                


******************************************************************************



 NODE   VOLTAGE     NODE   VOLTAGE     NODE   VOLTAGE     NODE   VOLTAGE


(  OUT)   26.2310  (N01228)    2.6813 (N01430)    3.6306 (N01866)   12.0000     

(N01936)   50.0000 (N21518)    6.6924 (N22961)    7.4597 (N26201)    2.6813     

(N26542)    0.0000 (N39220)   50.0000 (N43174)    0.0000 




    VOLTAGE SOURCE CURRENTS
    NAME         CURRENT

    V_V1        -1.164E-02
    V_V2        -7.923E-02
    V_V3         0.000E+00

    TOTAL POWER DISSIPATION   4.10E+00  WATTS

**** Param: R_R2.Value = 352.29805545172417
**** Param: C_C1.Value = 3.34196630756554m
**** Param: R_R3.Value = 1.02290613418165k
**** Param: R_R1.Value = 307.24479089554870
**** Param: C_C2.Value = 3.40070232581561
**** Param: C_C3.Value = 14.93961912900174p
**** Param: R_R5.Value = 66.69832018451820
**** Param: R_R6.Value = 1.86761099127667k
**** Param: R_R7.Value = 33.85632804271241
**** Param: D1N755(model).bv = 7.86990722373119

**** Command: doALL

**** 04/09/25 14:43:48 **** PSpice 24.1.0 (22 October 2024) *** ID# 0 ********

 ** Profile: "SCHEMATIC1-AC"  [ C:\Cadence\Pspice sim\mc_cascode-PSpiceFiles\SCHEMATIC1\AC.sim ] 


 ****     SMALL SIGNAL BIAS SOLUTION       TEMPERATURE =   27.000 DEG C

 ****     Monte Carlo run 2                


******************************************************************************



 NODE   VOLTAGE     NODE   VOLTAGE     NODE   VOLTAGE     NODE   VOLTAGE


(  OUT)   23.4610  (N01228)    3.0022 (N01430)    3.9654 (N01866)   12.0000     

(N01936)   50.0000 (N21518)    7.0577 (N22961)    7.8289 (N26201)    3.0022     

(N26542)    0.0000 (N39220)   50.0000 (N43174)    0.0000 




    VOLTAGE SOURCE CURRENTS
    NAME         CURRENT

    V_V1        -1.184E-02
    V_V2        -8.638E-02
    V_V3         0.000E+00

    TOTAL POWER DISSIPATION   4.46E+00  WATTS

**** Param: R_R2.Value = 375.28525706066443
**** Param: C_C1.Value = 3.53690267647328m
**** Param: R_R3.Value = 1.12955711940584k
**** Param: R_R1.Value = 298.60649273959444
**** Param: C_C2.Value = 304.12732322153386u
**** Param: C_C3.Value = 13.54495376445814p
**** Param: R_R5.Value = 64.46282751164672
**** Param: R_R6.Value = 1.76802428761955k
**** Param: R_R7.Value = 31.63111304833346
**** Param: D1N755(model).bv = 6.99884792626728

**** Command: doALL

**** 04/09/25 14:43:48 **** PSpice 24.1.0 (22 October 2024) *** ID# 0 ********

 ** Profile: "SCHEMATIC1-AC"  [ C:\Cadence\Pspice sim\mc_cascode-PSpiceFiles\SCHEMATIC1\AC.sim ] 


 ****     SMALL SIGNAL BIAS SOLUTION       TEMPERATURE =   27.000 DEG C

 ****     Monte Carlo run 3                


******************************************************************************



 NODE   VOLTAGE     NODE   VOLTAGE     NODE   VOLTAGE     NODE   VOLTAGE


(  OUT)   27.9820  (N01228)    2.3905 (N01430)    3.3298 (N01866)   12.0000     

(N01936)   50.0000 (N21518)    6.2019 (N22961)    6.9661 (N26201)    2.3905     

(N26542)    0.0000 (N39220)   50.0000 (N43174)    0.0000 




    VOLTAGE SOURCE CURRENTS
    NAME         CURRENT

    V_V1        -1.341E-02
    V_V2        -7.374E-02
    V_V3         0.000E+00

    TOTAL POWER DISSIPATION   3.85E+00  WATTS

**** Param: R_R2.Value = 418.96541565032788
**** Param: C_C1.Value = 3.26415692617573m
**** Param: R_R3.Value = 999.44664123963742
**** Param: R_R1.Value = 272.33479425137733
**** Param: C_C2.Value = 265.17630542924286u
**** Param: C_C3.Value = 14.63364055299539p
**** Param: R_R5.Value = 67.78991169222526
**** Param: R_R6.Value = 1.80054295979432k
**** Param: R_R7.Value = 33.09654322089671
**** Param: D1N755(model).bv = 7.66074861903745

**** Command: doALL

**** 04/09/25 14:43:48 **** PSpice 24.1.0 (22 October 2024) *** ID# 0 ********

 ** Profile: "SCHEMATIC1-AC"  [ C:\Cadence\Pspice sim\mc_cascode-PSpiceFiles\SCHEMATIC1\AC.sim ] 


 ****     SMALL SIGNAL BIAS SOLUTION       TEMPERATURE =   27.000 DEG C

 ****     Monte Carlo run 4                


******************************************************************************



 NODE   VOLTAGE     NODE   VOLTAGE     NODE   VOLTAGE     NODE   VOLTAGE


(  OUT)   26.8250  (N01228)    2.8902 (N01430)    3.8513 (N01866)   12.0000     

(N01936)   50.0000 (N21518)    6.8451 (N22961)    7.6145 (N26201)    2.8902     

(N26542)    0.0000 (N39220)   50.0000 (N43174)    0.0000 




    VOLTAGE SOURCE CURRENTS
    NAME         CURRENT

    V_V1        -1.047E-02
    V_V2        -8.510E-02
    V_V3         0.000E+00

    TOTAL POWER DISSIPATION   4.38E+00  WATTS

**** Param: R_R2.Value = 374.85535150081131
**** Param: C_C1.Value = 3.40760979033784m
**** Param: R_R3.Value = 1.07793608151929k
**** Param: R_R1.Value = 294.31075437198598
**** Param: C_C2.Value = 271.52916043580433u
**** Param: C_C3.Value = 15.32305368205817p
**** Param: R_R5.Value = 69.45055700407737
**** Param: R_R6.Value = 1.84224497431745k
**** Param: R_R7.Value = 32.86468875551125
**** Param: D1N755(model).bv = 7.20292519913327

**** Command: doALL

**** 04/09/25 14:43:48 **** PSpice 24.1.0 (22 October 2024) *** ID# 0 ********

 ** Profile: "SCHEMATIC1-AC"  [ C:\Cadence\Pspice sim\mc_cascode-PSpiceFiles\SCHEMATIC1\AC.sim ] 


 ****     SMALL SIGNAL BIAS SOLUTION       TEMPERATURE =   27.000 DEG C

 ****     Monte Carlo run 5                


******************************************************************************



 NODE   VOLTAGE     NODE   VOLTAGE     NODE   VOLTAGE     NODE   VOLTAGE


(  OUT)   27.2570  (N01228)    2.6041 (N01430)    3.5504 (N01866)   12.0000     

(N01936)   50.0000 (N21518)    6.4017 (N22961)    7.1678 (N26201)    2.6041     

(N26542)    0.0000 (N39220)   50.0000 (N43174)    0.0000 




    VOLTAGE SOURCE CURRENTS
    NAME         CURRENT

    V_V1        -1.289E-02
    V_V2        -7.727E-02
    V_V3         0.000E+00

    TOTAL POWER DISSIPATION   4.02E+00  WATTS

**** Param: R_R2.Value = 403.18246438116768
**** Param: C_C1.Value = 3.44960631122776m
**** Param: R_R3.Value = 1.21761661126378k
**** Param: R_R1.Value = 313.19375930221003
**** Param: C_C2.Value = 1.57447471877193
**** Param: C_C3.Value = 13.92701498458815p
**** Param: R_R5.Value = 67.38391065242044
**** Param: R_R6.Value = 1.74478255047880k
**** Param: R_R7.Value = 34.04846625359271
**** Param: D1N755(model).bv = 7.06440168462172

**** Command: doALL

**** 04/09/25 14:43:48 **** PSpice 24.1.0 (22 October 2024) *** ID# 0 ********

 ** Profile: "SCHEMATIC1-AC"  [ C:\Cadence\Pspice sim\mc_cascode-PSpiceFiles\SCHEMATIC1\AC.sim ] 


 ****     SMALL SIGNAL BIAS SOLUTION       TEMPERATURE =   27.000 DEG C

 ****     Monte Carlo run 6                


******************************************************************************



 NODE   VOLTAGE     NODE   VOLTAGE     NODE   VOLTAGE     NODE   VOLTAGE


(  OUT)   28.7650  (N01228)    2.3642 (N01430)    3.2915 (N01866)   12.0000     

(N01936)   50.0000 (N21518)    6.2671 (N22961)    7.0285 (N26201)    2.3642     

(N26542)    0.0000 (N39220)   50.0000 (N43174)    0.0000 




    VOLTAGE SOURCE CURRENTS
    NAME         CURRENT

    V_V1        -1.233E-02
    V_V2        -6.780E-02
    V_V3         0.000E+00

    TOTAL POWER DISSIPATION   3.54E+00  WATTS

**** Param: R_R2.Value = 398.16107230925530
**** Param: C_C1.Value = 3.52681142612995m
**** Param: R_R3.Value = 1.29391520167876k
**** Param: R_R1.Value = 329.26989211779920
**** Param: C_C2.Value = 4.46030497482223
**** Param: C_C3.Value = 14.67731254005554p
**** Param: R_R5.Value = 66.13166110360763
**** Param: R_R6.Value = 1.75625786481215k
**** Param: R_R7.Value = 33.94071407336239
**** Param: D1N755(model).bv = 6.78561510055849

**** Command: doALL

**** 04/09/25 14:43:48 **** PSpice 24.1.0 (22 October 2024) *** ID# 0 ********

 ** Profile: "SCHEMATIC1-AC"  [ C:\Cadence\Pspice sim\mc_cascode-PSpiceFiles\SCHEMATIC1\AC.sim ] 


 ****     SMALL SIGNAL BIAS SOLUTION       TEMPERATURE =   27.000 DEG C

 ****     Monte Carlo run 7                


******************************************************************************



 NODE   VOLTAGE     NODE   VOLTAGE     NODE   VOLTAGE     NODE   VOLTAGE


(  OUT)   29.3660  (N01228)    2.1771 (N01430)    3.0947 (N01866)   12.0000     

(N01936)   50.0000 (N21518)    5.9949 (N22961)    6.7538 (N26201)    2.1771     

(N26542)    0.0000 (N39220)   50.0000 (N43174)    0.0000 




    VOLTAGE SOURCE CURRENTS
    NAME         CURRENT

    V_V1        -1.318E-02
    V_V2        -6.267E-02
    V_V3         0.000E+00

    TOTAL POWER DISSIPATION   3.29E+00  WATTS

**** Param: R_R2.Value = 383.50512864870410
**** Param: C_C1.Value = 3.03113162633137m
**** Param: R_R3.Value = 1.12225033372561k
**** Param: R_R1.Value = 281.19908796945265
**** Param: C_C2.Value = 265.16019165623953u
**** Param: C_C3.Value = 16.25637073885311p
**** Param: R_R5.Value = 66.19983917101958
**** Param: R_R6.Value = 1.75179075987624k
**** Param: R_R7.Value = 33.05731029980652
**** Param: D1N755(model).bv = 7.78677480391858

**** Command: doALL

**** 04/09/25 14:43:48 **** PSpice 24.1.0 (22 October 2024) *** ID# 0 ********

 ** Profile: "SCHEMATIC1-AC"  [ C:\Cadence\Pspice sim\mc_cascode-PSpiceFiles\SCHEMATIC1\AC.sim ] 


 ****     SMALL SIGNAL BIAS SOLUTION       TEMPERATURE =   27.000 DEG C

 ****     Monte Carlo run 8                


******************************************************************************



 NODE   VOLTAGE     NODE   VOLTAGE     NODE   VOLTAGE     NODE   VOLTAGE


(  OUT)   27.2180  (N01228)    2.7463 (N01430)    3.6982 (N01866)   12.0000     

(N01936)   50.0000 (N21518)    6.9761 (N22961)    7.7438 (N26201)    2.7463     

(N26542)    0.0000 (N39220)   50.0000 (N43174)    0.0000 




    VOLTAGE SOURCE CURRENTS
    NAME         CURRENT

    V_V1        -1.110E-02
    V_V2        -8.102E-02
    V_V3         0.000E+00

    TOTAL POWER DISSIPATION   4.18E+00  WATTS

**** Param: R_R2.Value = 400.97154226019376
**** Param: C_C1.Value = 3.44948545793023m
**** Param: R_R3.Value = 1.08438277981671k
**** Param: R_R1.Value = 289.86532060805627
**** Param: C_C2.Value = 9.74977303720206
**** Param: C_C3.Value = 14.90537736136967p
**** Param: R_R5.Value = 67.35987105116511
**** Param: R_R6.Value = 1.89219511015241k
**** Param: R_R7.Value = 33.56174174344247
**** Param: D1N755(model).bv = 6.91241950743126

**** Command: doALL

**** 04/09/25 14:43:48 **** PSpice 24.1.0 (22 October 2024) *** ID# 0 ********

 ** Profile: "SCHEMATIC1-AC"  [ C:\Cadence\Pspice sim\mc_cascode-PSpiceFiles\SCHEMATIC1\AC.sim ] 


 ****     SMALL SIGNAL BIAS SOLUTION       TEMPERATURE =   27.000 DEG C

 ****     Monte Carlo run 9                


******************************************************************************



 NODE   VOLTAGE     NODE   VOLTAGE     NODE   VOLTAGE     NODE   VOLTAGE


(  OUT)   28.8170  (N01228)    2.5138 (N01430)    3.4527 (N01866)   12.0000     

(N01936)   50.0000 (N21518)    6.1140 (N22961)    6.8777 (N26201)    2.5138     

(N26542)    0.0000 (N39220)   50.0000 (N43174)    0.0000 




    VOLTAGE SOURCE CURRENTS
    NAME         CURRENT

    V_V1        -1.277E-02
    V_V2        -7.308E-02
    V_V3         0.000E+00

    TOTAL POWER DISSIPATION   3.81E+00  WATTS

**** Param: R_R2.Value = 391.05007128560482
**** Param: C_C1.Value = 3.22425519577624m
**** Param: R_R3.Value = 1.13515005883934k
**** Param: R_R1.Value = 301.06306751430509
**** Param: C_C2.Value = 2.89653654927214
**** Param: C_C3.Value = 14.58401745658742p
**** Param: R_R5.Value = 65.21964754202503
**** Param: R_R6.Value = 1.74287536108144k
**** Param: R_R7.Value = 32.59645105429281
**** Param: D1N755(model).bv = 7.95432142094180

**** Command: doALL

**** 04/09/25 14:43:48 **** PSpice 24.1.0 (22 October 2024) *** ID# 0 ********

 ** Profile: "SCHEMATIC1-AC"  [ C:\Cadence\Pspice sim\mc_cascode-PSpiceFiles\SCHEMATIC1\AC.sim ] 


 ****     SMALL SIGNAL BIAS SOLUTION       TEMPERATURE =   27.000 DEG C

 ****     Monte Carlo run 10               


******************************************************************************



 NODE   VOLTAGE     NODE   VOLTAGE     NODE   VOLTAGE     NODE   VOLTAGE


(  OUT)   24.9960  (N01228)    2.7769 (N01430)    3.7322 (N01866)   12.0000     

(N01936)   50.0000 (N21518)    7.1390 (N22961)    7.9084 (N26201)    2.7769     

(N26542)    0.0000 (N39220)   50.0000 (N43174)    0.0000 




    VOLTAGE SOURCE CURRENTS
    NAME         CURRENT

    V_V1        -1.046E-02
    V_V2        -8.305E-02
    V_V3         0.000E+00

    TOTAL POWER DISSIPATION   4.28E+00  WATTS

**** Param: R_R2.Value = 388.30793049534981
**** Param: C_C1.Value = 3.62339335306864m
**** Param: R_R3.Value = 1.13918329434786k
**** Param: R_R1.Value = 294.11919137762050
**** Param: C_C2.Value = 286.30549027985472u
**** Param: C_C3.Value = 15.47192297128208p
**** Param: R_R5.Value = 67.55788613706081
**** Param: R_R6.Value = 1.69176879412404k
**** Param: R_R7.Value = 33.40799489521991
**** Param: D1N755(model).bv = 7.50720999786370

**** Command: doALL

**** 04/09/25 14:43:48 **** PSpice 24.1.0 (22 October 2024) *** ID# 0 ********

 ** Profile: "SCHEMATIC1-AC"  [ C:\Cadence\Pspice sim\mc_cascode-PSpiceFiles\SCHEMATIC1\AC.sim ] 


 ****     SMALL SIGNAL BIAS SOLUTION       TEMPERATURE =   27.000 DEG C

 ****     Monte Carlo run 11               


******************************************************************************



 NODE   VOLTAGE     NODE   VOLTAGE     NODE   VOLTAGE     NODE   VOLTAGE


(  OUT)   27.7400  (N01228)    2.5914 (N01430)    3.5334 (N01866)   12.0000     

(N01936)   50.0000 (N21518)    6.7019 (N22961)    7.4673 (N26201)    2.5914     

(N26542)    0.0000 (N39220)   50.0000 (N43174)    0.0000 




    VOLTAGE SOURCE CURRENTS
    NAME         CURRENT

    V_V1        -1.167E-02
    V_V2        -7.568E-02
    V_V3         0.000E+00

    TOTAL POWER DISSIPATION   3.92E+00  WATTS

**** Param: R_R2.Value = 373.83224292038568
**** Param: C_C1.Value = 3.59672505874813m
**** Param: R_R3.Value = 1.00697373671900k
**** Param: R_R1.Value = 311.86088647106442
**** Param: C_C2.Value = 7.71601956572161
**** Param: C_C3.Value = 14.40914639728996p
**** Param: R_R5.Value = 67.17663586826343
**** Param: R_R6.Value = 1.69603810934421k
**** Param: R_R7.Value = 34.92949086348469
**** Param: D1N755(model).bv = 7.77478102969451

**** Command: doALL

**** 04/09/25 14:43:48 **** PSpice 24.1.0 (22 October 2024) *** ID# 0 ********

 ** Profile: "SCHEMATIC1-AC"  [ C:\Cadence\Pspice sim\mc_cascode-PSpiceFiles\SCHEMATIC1\AC.sim ] 


 ****     SMALL SIGNAL BIAS SOLUTION       TEMPERATURE =   27.000 DEG C

 ****     Monte Carlo run 12               


******************************************************************************



 NODE   VOLTAGE     NODE   VOLTAGE     NODE   VOLTAGE     NODE   VOLTAGE


(  OUT)   24.4980  (N01228)    2.9306 (N01430)    3.8848 (N01866)   12.0000     

(N01936)   50.0000 (N21518)    6.9631 (N22961)    7.7321 (N26201)    2.9306     

(N26542)    0.0000 (N39220)   50.0000 (N43174)    0.0000 




    VOLTAGE SOURCE CURRENTS
    NAME         CURRENT

    V_V1        -1.142E-02
    V_V2        -8.178E-02
    V_V3         0.000E+00

    TOTAL POWER DISSIPATION   4.23E+00  WATTS

**** Param: R_R2.Value = 374.14550743686777
**** Param: C_C1.Value = 3.54898800622578m
**** Param: R_R3.Value = 1.15671150276934k
**** Param: R_R1.Value = 300.37016730602409
**** Param: C_C2.Value = 289.25833918271434u
**** Param: C_C3.Value = 14.03367717520676p
**** Param: R_R5.Value = 69.70781934419554
**** Param: R_R6.Value = 1.78572804819982k
**** Param: R_R7.Value = 31.66918160864245
**** Param: D1N755(model).bv = 7.50588244270150

**** Command: doALL

**** 04/09/25 14:43:48 **** PSpice 24.1.0 (22 October 2024) *** ID# 0 ********

 ** Profile: "SCHEMATIC1-AC"  [ C:\Cadence\Pspice sim\mc_cascode-PSpiceFiles\SCHEMATIC1\AC.sim ] 


 ****     SMALL SIGNAL BIAS SOLUTION       TEMPERATURE =   27.000 DEG C

 ****     Monte Carlo run 13               


******************************************************************************



 NODE   VOLTAGE     NODE   VOLTAGE     NODE   VOLTAGE     NODE   VOLTAGE


(  OUT)   26.2630  (N01228)    2.5662 (N01430)    3.5146 (N01866)   12.0000     

(N01936)   50.0000 (N21518)    6.7004 (N22961)    7.4676 (N26201)    2.5662     

(N26542)    0.0000 (N39220)   50.0000 (N43174)    0.0000 




    VOLTAGE SOURCE CURRENTS
    NAME         CURRENT

    V_V1        -1.211E-02
    V_V2        -7.903E-02
    V_V3         0.000E+00

    TOTAL POWER DISSIPATION   4.10E+00  WATTS

**** Param: R_R2.Value = 396.10186948702091
**** Param: C_C1.Value = 3.23769005401776m
**** Param: R_R3.Value = 1.04260144922129k
**** Param: R_R1.Value = 300.02764520759939
**** Param: C_C2.Value = 7.28998117343669
**** Param: C_C3.Value = 15.76755577257607p
**** Param: R_R5.Value = 68.99100481122399
**** Param: R_R6.Value = 1.78573276184712k
**** Param: R_R7.Value = 31.51888129275582
**** Param: D1N755(model).bv = 7.30171361430708

**** Command: doALL

**** 04/09/25 14:43:48 **** PSpice 24.1.0 (22 October 2024) *** ID# 0 ********

 ** Profile: "SCHEMATIC1-AC"  [ C:\Cadence\Pspice sim\mc_cascode-PSpiceFiles\SCHEMATIC1\AC.sim ] 


 ****     SMALL SIGNAL BIAS SOLUTION       TEMPERATURE =   27.000 DEG C

 ****     Monte Carlo run 14               


******************************************************************************



 NODE   VOLTAGE     NODE   VOLTAGE     NODE   VOLTAGE     NODE   VOLTAGE


(  OUT)   25.6370  (N01228)    2.6258 (N01430)    3.5796 (N01866)   12.0000     

(N01936)   50.0000 (N21518)    6.4941 (N22961)    7.2623 (N26201)    2.6258     

(N26542)    0.0000 (N39220)   50.0000 (N43174)    0.0000 




    VOLTAGE SOURCE CURRENTS
    NAME         CURRENT

    V_V1        -1.196E-02
    V_V2        -8.120E-02
    V_V3         0.000E+00

    TOTAL POWER DISSIPATION   4.20E+00  WATTS

**** Param: R_R2.Value = 400.80268901945112
**** Param: C_C1.Value = 2.99316354869228m
**** Param: R_R3.Value = 1.09043770931272k
**** Param: R_R1.Value = 302.60855161665523
**** Param: C_C2.Value = 320.26123844111453u
**** Param: C_C3.Value = 13.81403546250801p
**** Param: R_R5.Value = 71.48706655040714
**** Param: R_R6.Value = 1.87748017410639k
**** Param: R_R7.Value = 32.94868522973960
**** Param: D1N755(model).bv = 7.26898251289407

**** Command: doALL

**** 04/09/25 14:43:48 **** PSpice 24.1.0 (22 October 2024) *** ID# 0 ********

 ** Profile: "SCHEMATIC1-AC"  [ C:\Cadence\Pspice sim\mc_cascode-PSpiceFiles\SCHEMATIC1\AC.sim ] 


 ****     SMALL SIGNAL BIAS SOLUTION       TEMPERATURE =   27.000 DEG C

 ****     Monte Carlo run 15               


******************************************************************************



 NODE   VOLTAGE     NODE   VOLTAGE     NODE   VOLTAGE     NODE   VOLTAGE


(  OUT)   26.4320  (N01228)    2.6316 (N01430)    3.5790 (N01866)   12.0000     

(N01936)   50.0000 (N21518)    6.4636 (N22961)    7.2302 (N26201)    2.6316     

(N26542)    0.0000 (N39220)   50.0000 (N43174)    0.0000 




    VOLTAGE SOURCE CURRENTS
    NAME         CURRENT

    V_V1        -1.190E-02
    V_V2        -7.788E-02
    V_V3         0.000E+00

    TOTAL POWER DISSIPATION   4.04E+00  WATTS

**** Param: R_R2.Value = 386.78927410769523
**** Param: C_C1.Value = 3.21748741111484m
**** Param: R_R3.Value = 1.16493678429889k
**** Param: R_R1.Value = 293.28166014644097
**** Param: C_C2.Value = 324.20508438367870u
**** Param: C_C3.Value = 14.31566820276498p
**** Param: R_R5.Value = 72.71548295481713
**** Param: R_R6.Value = 1.75634874586064k
**** Param: R_R7.Value = 33.54254294711039
**** Param: D1N755(model).bv = 7.60091708120975

**** Command: doALL

**** 04/09/25 14:43:48 **** PSpice 24.1.0 (22 October 2024) *** ID# 0 ********

 ** Profile: "SCHEMATIC1-AC"  [ C:\Cadence\Pspice sim\mc_cascode-PSpiceFiles\SCHEMATIC1\AC.sim ] 


 ****     SMALL SIGNAL BIAS SOLUTION       TEMPERATURE =   27.000 DEG C

 ****     Monte Carlo run 16               


******************************************************************************



 NODE   VOLTAGE     NODE   VOLTAGE     NODE   VOLTAGE     NODE   VOLTAGE


(  OUT)   27.5410  (N01228)    2.6328 (N01430)    3.5762 (N01866)   12.0000     

(N01936)   50.0000 (N21518)    6.7945 (N22961)    7.5603 (N26201)    2.6328     

(N26542)    0.0000 (N39220)   50.0000 (N43174)    0.0000 




    VOLTAGE SOURCE CURRENTS
    NAME         CURRENT

    V_V1        -1.148E-02
    V_V2        -7.658E-02
    V_V3         0.000E+00

    TOTAL POWER DISSIPATION   3.97E+00  WATTS

**** Param: R_R2.Value = 376.44623057729666
**** Param: C_C1.Value = 3.47246772667623m
**** Param: R_R3.Value = 1.16248606712422k
**** Param: R_R1.Value = 295.62354051721479
**** Param: C_C2.Value = 36.34184118167566m
**** Param: C_C3.Value = 16.17049165318766p
**** Param: R_R5.Value = 62.86957698559977
**** Param: R_R6.Value = 1.95016970347591k
**** Param: R_R7.Value = 33.01392940468035
**** Param: D1N755(model).bv = 6.82576219977416

**** Command: doALL

**** 04/09/25 14:43:48 **** PSpice 24.1.0 (22 October 2024) *** ID# 0 ********

 ** Profile: "SCHEMATIC1-AC"  [ C:\Cadence\Pspice sim\mc_cascode-PSpiceFiles\SCHEMATIC1\AC.sim ] 


 ****     SMALL SIGNAL BIAS SOLUTION       TEMPERATURE =   27.000 DEG C

 ****     Monte Carlo run 17               


******************************************************************************



 NODE   VOLTAGE     NODE   VOLTAGE     NODE   VOLTAGE     NODE   VOLTAGE


(  OUT)   29.0650  (N01228)    2.3956 (N01430)    3.3298 (N01866)   12.0000     

(N01936)   50.0000 (N21518)    6.0328 (N22961)    6.7954 (N26201)    2.3956     

(N26542)    0.0000 (N39220)   50.0000 (N43174)    0.0000 




    VOLTAGE SOURCE CURRENTS
    NAME         CURRENT

    V_V1        -1.383E-02
    V_V2        -7.082E-02
    V_V3         0.000E+00

    TOTAL POWER DISSIPATION   3.71E+00  WATTS

**** Param: R_R2.Value = 388.78384766788565
**** Param: C_C1.Value = 3.09808435316019m
**** Param: R_R3.Value = 1.16365685508621k
**** Param: R_R1.Value = 301.52449762918366
**** Param: C_C2.Value = 6.30484368755150
**** Param: C_C3.Value = 14.09355449079867p
**** Param: R_R5.Value = 69.95868186190570
**** Param: R_R6.Value = 1.71928861306003k
**** Param: R_R7.Value = 31.42281253360159
**** Param: D1N755(model).bv = 7.86468855861080

**** Command: doALL

**** 04/09/25 14:43:48 **** PSpice 24.1.0 (22 October 2024) *** ID# 0 ********

 ** Profile: "SCHEMATIC1-AC"  [ C:\Cadence\Pspice sim\mc_cascode-PSpiceFiles\SCHEMATIC1\AC.sim ] 


 ****     SMALL SIGNAL BIAS SOLUTION       TEMPERATURE =   27.000 DEG C

 ****     Monte Carlo run 18               


******************************************************************************



 NODE   VOLTAGE     NODE   VOLTAGE     NODE   VOLTAGE     NODE   VOLTAGE


(  OUT)   25.1490  (N01228)    2.6562 (N01430)    3.6101 (N01866)   12.0000     

(N01936)   50.0000 (N21518)    7.0511 (N22961)    7.8202 (N26201)    2.6562     

(N26542)    0.0000 (N39220)   50.0000 (N43174)    0.0000 




    VOLTAGE SOURCE CURRENTS
    NAME         CURRENT

    V_V1        -1.075E-02
    V_V2        -8.242E-02
    V_V3         0.000E+00

    TOTAL POWER DISSIPATION   4.25E+00  WATTS

**** Param: R_R2.Value = 381.15959570606577
**** Param: C_C1.Value = 3.59110538041322m
**** Param: R_R3.Value = 1.04408355361864k
**** Param: R_R1.Value = 293.84922120416581
**** Param: C_C2.Value = 282.51472518082221u
**** Param: C_C3.Value = 15.69925534836879p
**** Param: R_R5.Value = 69.88293242196144
**** Param: R_R6.Value = 1.82373376782051k
**** Param: R_R7.Value = 33.09222241460925
**** Param: D1N755(model).bv = 7.87082277901547

**** Command: doALL

**** 04/09/25 14:43:48 **** PSpice 24.1.0 (22 October 2024) *** ID# 0 ********

 ** Profile: "SCHEMATIC1-AC"  [ C:\Cadence\Pspice sim\mc_cascode-PSpiceFiles\SCHEMATIC1\AC.sim ] 


 ****     SMALL SIGNAL BIAS SOLUTION       TEMPERATURE =   27.000 DEG C

 ****     Monte Carlo run 19               


******************************************************************************



 NODE   VOLTAGE     NODE   VOLTAGE     NODE   VOLTAGE     NODE   VOLTAGE


(  OUT)   24.6890  (N01228)    2.9256 (N01430)    3.8879 (N01866)   12.0000     

(N01936)   50.0000 (N21518)    7.0557 (N22961)    7.8264 (N26201)    2.9256     

(N26542)    0.0000 (N39220)   50.0000 (N43174)    0.0000 




    VOLTAGE SOURCE CURRENTS
    NAME         CURRENT

    V_V1        -1.095E-02
    V_V2        -8.614E-02
    V_V3         0.000E+00

    TOTAL POWER DISSIPATION   4.44E+00  WATTS

**** Param: R_R2.Value = 378.73931745122195
**** Param: C_C1.Value = 3.06535325174718m
**** Param: R_R3.Value = 889.46549503883944
**** Param: R_R1.Value = 281.69781005990387
**** Param: C_C2.Value = 12.24984933347575
**** Param: C_C3.Value = 16.05787835322123p
**** Param: R_R5.Value = 65.73958344779699
**** Param: R_R6.Value = 1.71630122870712k
**** Param: R_R7.Value = 32.95905516482952
**** Param: D1N755(model).bv = 6.77137821588794

**** Command: doALL

**** 04/09/25 14:43:48 **** PSpice 24.1.0 (22 October 2024) *** ID# 0 ********

 ** Profile: "SCHEMATIC1-AC"  [ C:\Cadence\Pspice sim\mc_cascode-PSpiceFiles\SCHEMATIC1\AC.sim ] 


 ****     SMALL SIGNAL BIAS SOLUTION       TEMPERATURE =   27.000 DEG C

 ****     Monte Carlo run 20               


******************************************************************************



 NODE   VOLTAGE     NODE   VOLTAGE     NODE   VOLTAGE     NODE   VOLTAGE


(  OUT)   28.1180  (N01228)    2.6262 (N01430)    3.5752 (N01866)   12.0000     

(N01936)   50.0000 (N21518)    5.9733 (N22961)    6.7391 (N26201)    2.6262     

(N26542)    0.0000 (N39220)   50.0000 (N43174)    0.0000 




    VOLTAGE SOURCE CURRENTS
    NAME         CURRENT

    V_V1        -1.389E-02
    V_V2        -7.768E-02
    V_V3         0.000E+00

    TOTAL POWER DISSIPATION   4.05E+00  WATTS

**** Param: R_R2.Value = 371.70244220080207
**** Param: C_C1.Value = 3.26997802667318m
**** Param: R_R3.Value = 1.13934700501426k
**** Param: R_R1.Value = 303.30172514360635
**** Param: C_C2.Value = 1.73805392956328
**** Param: C_C3.Value = 13.72165593432417p
**** Param: R_R5.Value = 67.23593355135989
**** Param: R_R6.Value = 1.73855429614833k
**** Param: R_R7.Value = 33.39634154317262
**** Param: D1N755(model).bv = 7.18552964873196

**** Command: doALL

**** 04/09/25 14:43:48 **** PSpice 24.1.0 (22 October 2024) *** ID# 0 ********

 ** Profile: "SCHEMATIC1-AC"  [ C:\Cadence\Pspice sim\mc_cascode-PSpiceFiles\SCHEMATIC1\AC.sim ] 


 ****     SMALL SIGNAL BIAS SOLUTION       TEMPERATURE =   27.000 DEG C

 ****     Monte Carlo run 21               


******************************************************************************



 NODE   VOLTAGE     NODE   VOLTAGE     NODE   VOLTAGE     NODE   VOLTAGE


(  OUT)   27.9610  (N01228)    2.4867 (N01430)    3.4235 (N01866)   12.0000     

(N01936)   50.0000 (N21518)    6.3874 (N22961)    7.1514 (N26201)    2.4867     

(N26542)    0.0000 (N39220)   50.0000 (N43174)    0.0000 




    VOLTAGE SOURCE CURRENTS
    NAME         CURRENT

    V_V1        -1.304E-02
    V_V2        -7.266E-02
    V_V3         0.000E+00

    TOTAL POWER DISSIPATION   3.79E+00  WATTS

**** Param: R_R2.Value = 385.61683290137353
**** Param: C_C1.Value = 3.12340311899167m
**** Param: R_R3.Value = 1.10192529296233k
**** Param: R_R1.Value = 299.09670785293611
**** Param: C_C2.Value = 5.14758180822169
**** Param: C_C3.Value = 13.98057496871853p
**** Param: R_R5.Value = 67.62929265634513
**** Param: R_R6.Value = 1.90158148258335k
**** Param: R_R7.Value = 33.39483464420098
**** Param: D1N755(model).bv = 8.13720358897671

**** Command: doALL

**** 04/09/25 14:43:48 **** PSpice 24.1.0 (22 October 2024) *** ID# 0 ********

 ** Profile: "SCHEMATIC1-AC"  [ C:\Cadence\Pspice sim\mc_cascode-PSpiceFiles\SCHEMATIC1\AC.sim ] 


 ****     SMALL SIGNAL BIAS SOLUTION       TEMPERATURE =   27.000 DEG C

 ****     Monte Carlo run 22               


******************************************************************************



 NODE   VOLTAGE     NODE   VOLTAGE     NODE   VOLTAGE     NODE   VOLTAGE


(  OUT)   23.8340  (N01228)    2.9986 (N01430)    3.9628 (N01866)   12.0000     

(N01936)   50.0000 (N21518)    7.3179 (N22961)    8.0895 (N26201)    2.9986     

(N26542)    0.0000 (N39220)   50.0000 (N43174)    0.0000 




    VOLTAGE SOURCE CURRENTS
    NAME         CURRENT

    V_V1        -1.014E-02
    V_V2        -8.748E-02
    V_V3         0.000E+00

    TOTAL POWER DISSIPATION   4.50E+00  WATTS

**** Param: R_R2.Value = 376.15006708222944
**** Param: C_C1.Value = 3.19172551652577m
**** Param: R_R3.Value = 1.01830030836649k
**** Param: R_R1.Value = 325.29129053756424
**** Param: C_C2.Value = 324.38233588671528u
**** Param: C_C3.Value = 16.49404889065218p
**** Param: R_R5.Value = 64.55746027486938
**** Param: R_R6.Value = 1.80888133032799k
**** Param: R_R7.Value = 31.30593411273018
**** Param: D1N755(model).bv = 7.40659047212134

**** Command: doALL

**** 04/09/25 14:43:48 **** PSpice 24.1.0 (22 October 2024) *** ID# 0 ********

 ** Profile: "SCHEMATIC1-AC"  [ C:\Cadence\Pspice sim\mc_cascode-PSpiceFiles\SCHEMATIC1\AC.sim ] 


 ****     SMALL SIGNAL BIAS SOLUTION       TEMPERATURE =   27.000 DEG C

 ****     Monte Carlo run 23               


******************************************************************************



 NODE   VOLTAGE     NODE   VOLTAGE     NODE   VOLTAGE     NODE   VOLTAGE


(  OUT)   22.6050  (N01228)    2.7064 (N01430)    3.6662 (N01866)   12.0000     

(N01936)   50.0000 (N21518)    6.5974 (N22961)    7.3680 (N26201)    2.7064     

(N26542)    0.0000 (N39220)   50.0000 (N43174)    0.0000 




    VOLTAGE SOURCE CURRENTS
    NAME         CURRENT

    V_V1        -1.231E-02
    V_V2        -8.422E-02
    V_V3         0.000E+00

    TOTAL POWER DISSIPATION   4.36E+00  WATTS

**** Param: R_R2.Value = 407.68816500315421
**** Param: C_C1.Value = 3.00196569719535m
**** Param: R_R3.Value = 1.18199850988109k
**** Param: R_R1.Value = 292.49743174649660
**** Param: C_C2.Value = 294.00384533219392u
**** Param: C_C3.Value = 15.80719931638539p
**** Param: R_R5.Value = 67.08421695677075
**** Param: R_R6.Value = 1.73855998925100k
**** Param: R_R7.Value = 33.17201451626222
**** Param: D1N755(model).bv = 7.65621662038026

**** Command: doALL

**** 04/09/25 14:43:48 **** PSpice 24.1.0 (22 October 2024) *** ID# 0 ********

 ** Profile: "SCHEMATIC1-AC"  [ C:\Cadence\Pspice sim\mc_cascode-PSpiceFiles\SCHEMATIC1\AC.sim ] 


 ****     SMALL SIGNAL BIAS SOLUTION       TEMPERATURE =   27.000 DEG C

 ****     Monte Carlo run 24               


******************************************************************************



 NODE   VOLTAGE     NODE   VOLTAGE     NODE   VOLTAGE     NODE   VOLTAGE


(  OUT)   27.5200  (N01228)    2.6130 (N01430)    3.5567 (N01866)   12.0000     

(N01936)   50.0000 (N21518)    6.8468 (N22961)    7.6128 (N26201)    2.6130     

(N26542)    0.0000 (N39220)   50.0000 (N43174)    0.0000 




    VOLTAGE SOURCE CURRENTS
    NAME         CURRENT

    V_V1        -1.076E-02
    V_V2        -7.685E-02
    V_V3         0.000E+00

    TOTAL POWER DISSIPATION   3.97E+00  WATTS

**** Param: R_R2.Value = 386.11624383333458
**** Param: C_C1.Value = 3.27779320657979m
**** Param: R_R3.Value = 1.10569303604500k
**** Param: R_R1.Value = 301.76286164833283
**** Param: C_C2.Value = 14.19204727652822
**** Param: C_C3.Value = 15.98637348551897p
**** Param: R_R5.Value = 68.33320201879989
**** Param: R_R6.Value = 1.82605165242051k
**** Param: R_R7.Value = 32.99457219251250
**** Param: D1N755(model).bv = 7.31270027771844

**** Command: doALL

**** 04/09/25 14:43:48 **** PSpice 24.1.0 (22 October 2024) *** ID# 0 ********

 ** Profile: "SCHEMATIC1-AC"  [ C:\Cadence\Pspice sim\mc_cascode-PSpiceFiles\SCHEMATIC1\AC.sim ] 


 ****     SMALL SIGNAL BIAS SOLUTION       TEMPERATURE =   27.000 DEG C

 ****     Monte Carlo run 25               


******************************************************************************



 NODE   VOLTAGE     NODE   VOLTAGE     NODE   VOLTAGE     NODE   VOLTAGE


(  OUT)   26.7240  (N01228)    2.6095 (N01430)    3.5552 (N01866)   12.0000     

(N01936)   50.0000 (N21518)    6.5089 (N22961)    7.2751 (N26201)    2.6095     

(N26542)    0.0000 (N39220)   50.0000 (N43174)    0.0000 




    VOLTAGE SOURCE CURRENTS
    NAME         CURRENT

    V_V1        -1.224E-02
    V_V2        -7.714E-02
    V_V3         0.000E+00

    TOTAL POWER DISSIPATION   4.00E+00  WATTS

**** Param: R_R2.Value = 375.84013516698644
**** Param: C_C1.Value = 3.45701864680929m
**** Param: R_R3.Value = 1.09763329205012k
**** Param: R_R1.Value = 311.85891184464793
**** Param: C_C2.Value = 296.05835139011810u
**** Param: C_C3.Value = 14.06682027649770p
**** Param: R_R5.Value = 68.21621029655817
**** Param: R_R6.Value = 1.82202960207441k
**** Param: R_R7.Value = 33.04797735822559
**** Param: D1N755(model).bv = 7.27694784386730

**** Command: doALL

**** 04/09/25 14:43:48 **** PSpice 24.1.0 (22 October 2024) *** ID# 0 ********

 ** Profile: "SCHEMATIC1-AC"  [ C:\Cadence\Pspice sim\mc_cascode-PSpiceFiles\SCHEMATIC1\AC.sim ] 


 ****     SMALL SIGNAL BIAS SOLUTION       TEMPERATURE =   27.000 DEG C

 ****     Monte Carlo run 26               


******************************************************************************



 NODE   VOLTAGE     NODE   VOLTAGE     NODE   VOLTAGE     NODE   VOLTAGE


(  OUT)   26.0230  (N01228)    2.6054 (N01430)    3.5507 (N01866)   12.0000     

(N01936)   50.0000 (N21518)    6.4745 (N22961)    7.2409 (N26201)    2.6054     

(N26542)    0.0000 (N39220)   50.0000 (N43174)    0.0000 




    VOLTAGE SOURCE CURRENTS
    NAME         CURRENT

    V_V1        -1.266E-02
    V_V2        -7.688E-02
    V_V3         0.000E+00

    TOTAL POWER DISSIPATION   4.00E+00  WATTS

**** Param: R_R2.Value = 387.55013534350496
**** Param: C_C1.Value = 3.02305459761345m
**** Param: R_R3.Value = 1.13654904089764k
**** Param: R_R1.Value = 301.14241322976585
**** Param: C_C2.Value = 4.81554042512284
**** Param: C_C3.Value = 15.57336649678030p
**** Param: R_R5.Value = 69.61041167543992
**** Param: R_R6.Value = 1.72578718547642k
**** Param: R_R7.Value = 33.02369442689002
**** Param: D1N755(model).bv = 8.05159916989654

**** Command: doALL

**** 04/09/25 14:43:48 **** PSpice 24.1.0 (22 October 2024) *** ID# 0 ********

 ** Profile: "SCHEMATIC1-AC"  [ C:\Cadence\Pspice sim\mc_cascode-PSpiceFiles\SCHEMATIC1\AC.sim ] 


 ****     SMALL SIGNAL BIAS SOLUTION       TEMPERATURE =   27.000 DEG C

 ****     Monte Carlo run 27               


******************************************************************************



 NODE   VOLTAGE     NODE   VOLTAGE     NODE   VOLTAGE     NODE   VOLTAGE


(  OUT)   24.9480  (N01228)    2.8179 (N01430)    3.7732 (N01866)   12.0000     

(N01936)   50.0000 (N21518)    7.2353 (N22961)    8.0048 (N26201)    2.8179     

(N26542)    0.0000 (N39220)   50.0000 (N43174)    0.0000 




    VOLTAGE SOURCE CURRENTS
    NAME         CURRENT

    V_V1        -1.031E-02
    V_V2        -8.319E-02
    V_V3         0.000E+00

    TOTAL POWER DISSIPATION   4.28E+00  WATTS

**** Param: R_R2.Value = 405.96079243843297
**** Param: C_C1.Value = 3.37570451979125m
**** Param: R_R3.Value = 1.13336412429682k
**** Param: R_R1.Value = 279.61499344014214
**** Param: C_C2.Value = 6.71135023377178
**** Param: C_C3.Value = 16.42959379863887p
**** Param: R_R5.Value = 66.46485686884246
**** Param: R_R6.Value = 1.80023657534848k
**** Param: R_R7.Value = 32.22550336757067
**** Param: D1N755(model).bv = 7.01088747825556

**** Command: doALL

**** 04/09/25 14:43:48 **** PSpice 24.1.0 (22 October 2024) *** ID# 0 ********

 ** Profile: "SCHEMATIC1-AC"  [ C:\Cadence\Pspice sim\mc_cascode-PSpiceFiles\SCHEMATIC1\AC.sim ] 


 ****     SMALL SIGNAL BIAS SOLUTION       TEMPERATURE =   27.000 DEG C

 ****     Monte Carlo run 28               


******************************************************************************



 NODE   VOLTAGE     NODE   VOLTAGE     NODE   VOLTAGE     NODE   VOLTAGE


(  OUT)   29.5110  (N01228)    2.4198 (N01430)    3.3582 (N01866)   12.0000     

(N01936)   50.0000 (N21518)    6.2111 (N22961)    6.9746 (N26201)    2.4198     

(N26542)    0.0000 (N39220)   50.0000 (N43174)    0.0000 




    VOLTAGE SOURCE CURRENTS
    NAME         CURRENT

    V_V1        -1.238E-02
    V_V2        -7.328E-02
    V_V3         0.000E+00

    TOTAL POWER DISSIPATION   3.81E+00  WATTS

**** Param: R_R2.Value = 371.23839374644035
**** Param: C_C1.Value = 3.54356975005341m
**** Param: R_R3.Value = 1.16631593283038k
**** Param: R_R1.Value = 305.10268418006211
**** Param: C_C2.Value = 284.44434949797051u
**** Param: C_C3.Value = 14.48074282052065p
**** Param: R_R5.Value = 64.27592780428195
**** Param: R_R6.Value = 1.69992623570543k
**** Param: R_R7.Value = 33.21450906726226
**** Param: D1N755(model).bv = 7.98000274666585

**** Command: doALL

**** 04/09/25 14:43:48 **** PSpice 24.1.0 (22 October 2024) *** ID# 0 ********

 ** Profile: "SCHEMATIC1-AC"  [ C:\Cadence\Pspice sim\mc_cascode-PSpiceFiles\SCHEMATIC1\AC.sim ] 


 ****     SMALL SIGNAL BIAS SOLUTION       TEMPERATURE =   27.000 DEG C

 ****     Monte Carlo run 29               


******************************************************************************



 NODE   VOLTAGE     NODE   VOLTAGE     NODE   VOLTAGE     NODE   VOLTAGE


(  OUT)   25.4320  (N01228)    2.7425 (N01430)    3.6926 (N01866)   12.0000     

(N01936)   50.0000 (N21518)    7.1680 (N22961)    7.9363 (N26201)    2.7425     

(N26542)    0.0000 (N39220)   50.0000 (N43174)    0.0000 




    VOLTAGE SOURCE CURRENTS
    NAME         CURRENT

    V_V1        -1.095E-02
    V_V2        -8.052E-02
    V_V3         0.000E+00

    TOTAL POWER DISSIPATION   4.16E+00  WATTS

**** Param: R_R2.Value = 389.24444561812965
**** Param: C_C1.Value = 3.26584887234107m
**** Param: R_R3.Value = 1.07004334097642k
**** Param: R_R1.Value = 292.75241168758924
**** Param: C_C2.Value = 325.45390179143652u
**** Param: C_C3.Value = 15.00361644337291p
**** Param: R_R5.Value = 65.23010678283720
**** Param: R_R6.Value = 1.76076984157246k
**** Param: R_R7.Value = 33.53818973166300
**** Param: D1N755(model).bv = 7.22082430494095

**** Command: doALL

**** 04/09/25 14:43:48 **** PSpice 24.1.0 (22 October 2024) *** ID# 0 ********

 ** Profile: "SCHEMATIC1-AC"  [ C:\Cadence\Pspice sim\mc_cascode-PSpiceFiles\SCHEMATIC1\AC.sim ] 


 ****     SMALL SIGNAL BIAS SOLUTION       TEMPERATURE =   27.000 DEG C

 ****     Monte Carlo run 30               


******************************************************************************



 NODE   VOLTAGE     NODE   VOLTAGE     NODE   VOLTAGE     NODE   VOLTAGE


(  OUT)   27.8390  (N01228)    2.6026 (N01430)    3.5457 (N01866)   12.0000     

(N01936)   50.0000 (N21518)    6.4185 (N22961)    7.1837 (N26201)    2.6026     

(N26542)    0.0000 (N39220)   50.0000 (N43174)    0.0000 




    VOLTAGE SOURCE CURRENTS
    NAME         CURRENT

    V_V1        -1.237E-02
    V_V2        -7.570E-02
    V_V3         0.000E+00

    TOTAL POWER DISSIPATION   3.93E+00  WATTS

**** Param: R_R2.Value = 400.34186038325771
**** Param: C_C1.Value = 3.60298928800317m
**** Param: R_R3.Value = 1.17350933344429k
**** Param: R_R1.Value = 304.46523380412765
**** Param: C_C2.Value = 303.60765404217659u
**** Param: C_C3.Value = 16.33199560533464p
**** Param: R_R5.Value = 64.98809157182228
**** Param: R_R6.Value = 1.69314107401624k
**** Param: R_R7.Value = 33.70997431047149
**** Param: D1N755(model).bv = 7.53687398907437

**** Command: doALL

**** 04/09/25 14:43:48 **** PSpice 24.1.0 (22 October 2024) *** ID# 0 ********

 ** Profile: "SCHEMATIC1-AC"  [ C:\Cadence\Pspice sim\mc_cascode-PSpiceFiles\SCHEMATIC1\AC.sim ] 


 ****     SMALL SIGNAL BIAS SOLUTION       TEMPERATURE =   27.000 DEG C

 ****     Monte Carlo run 31               


******************************************************************************



 NODE   VOLTAGE     NODE   VOLTAGE     NODE   VOLTAGE     NODE   VOLTAGE


(  OUT)   27.3660  (N01228)    2.5681 (N01430)    3.5072 (N01866)   12.0000     

(N01936)   50.0000 (N21518)    6.7306 (N22961)    7.4955 (N26201)    2.5681     

(N26542)    0.0000 (N39220)   50.0000 (N43174)    0.0000 




    VOLTAGE SOURCE CURRENTS
    NAME         CURRENT

    V_V1        -1.125E-02
    V_V2        -7.434E-02
    V_V3         0.000E+00

    TOTAL POWER DISSIPATION   3.85E+00  WATTS

**** Param: R_R2.Value = 391.40445596129143
**** Param: C_C1.Value = 3.60103549302652m
**** Param: R_R3.Value = 974.37974920847364
**** Param: R_R1.Value = 310.12547431846093
**** Param: C_C2.Value = 6.15469262092959
**** Param: C_C3.Value = 14.46636860255745p
**** Param: R_R5.Value = 64.67054642692048
**** Param: R_R6.Value = 1.79032856796946k
**** Param: R_R7.Value = 31.95949923385181
**** Param: D1N755(model).bv = 7.18543809320353

**** Command: doALL

**** 04/09/25 14:43:48 **** PSpice 24.1.0 (22 October 2024) *** ID# 0 ********

 ** Profile: "SCHEMATIC1-AC"  [ C:\Cadence\Pspice sim\mc_cascode-PSpiceFiles\SCHEMATIC1\AC.sim ] 


 ****     SMALL SIGNAL BIAS SOLUTION       TEMPERATURE =   27.000 DEG C

 ****     Monte Carlo run 32               


******************************************************************************



 NODE   VOLTAGE     NODE   VOLTAGE     NODE   VOLTAGE     NODE   VOLTAGE


(  OUT)   24.5950  (N01228)    2.6869 (N01430)    3.6429 (N01866)   12.0000     

(N01936)   50.0000 (N21518)    6.3786 (N22961)    7.1474 (N26201)    2.6869     

(N26542)    0.0000 (N39220)   50.0000 (N43174)    0.0000 




    VOLTAGE SOURCE CURRENTS
    NAME         CURRENT

    V_V1        -1.240E-02
    V_V2        -8.192E-02
    V_V3         0.000E+00

    TOTAL POWER DISSIPATION   4.24E+00  WATTS

**** Param: R_R2.Value = 406.66928839667742
**** Param: C_C1.Value = 3.33376842555010m
**** Param: R_R3.Value = 1.11908919454956k
**** Param: R_R1.Value = 285.97714272467925
**** Param: C_C2.Value = 329.01504562517169u
**** Param: C_C3.Value = 14.63739432966094p
**** Param: R_R5.Value = 67.58655558744678
**** Param: R_R6.Value = 1.84040018511387k
**** Param: R_R7.Value = 32.83461594045502
**** Param: D1N755(model).bv = 7.32354960783715

**** Command: doALL

**** 04/09/25 14:43:48 **** PSpice 24.1.0 (22 October 2024) *** ID# 0 ********

 ** Profile: "SCHEMATIC1-AC"  [ C:\Cadence\Pspice sim\mc_cascode-PSpiceFiles\SCHEMATIC1\AC.sim ] 


 ****     SMALL SIGNAL BIAS SOLUTION       TEMPERATURE =   27.000 DEG C

 ****     Monte Carlo run 33               


******************************************************************************



 NODE   VOLTAGE     NODE   VOLTAGE     NODE   VOLTAGE     NODE   VOLTAGE


(  OUT)   27.9300  (N01228)    2.5979 (N01430)    3.5435 (N01866)   12.0000     

(N01936)   50.0000 (N21518)    6.5179 (N22961)    7.2837 (N26201)    2.5979     

(N26542)    0.0000 (N39220)   50.0000 (N43174)    0.0000 




    VOLTAGE SOURCE CURRENTS
    NAME         CURRENT

    V_V1        -1.160E-02
    V_V2        -7.718E-02
    V_V3         0.000E+00

    TOTAL POWER DISSIPATION   4.00E+00  WATTS

**** Param: R_R2.Value = 394.37060143321310
**** Param: C_C1.Value = 3.32121982482376m
**** Param: R_R3.Value = 1.10728885383384k
**** Param: R_R1.Value = 295.55990627859779
**** Param: C_C2.Value = 264.77748954741054u
**** Param: C_C3.Value = 15.62363048188726p
**** Param: R_R5.Value = 64.60572298411294
**** Param: R_R6.Value = 1.80855609145471k
**** Param: R_R7.Value = 34.05337760987393
**** Param: D1N755(model).bv = 7.48725089266640

**** Command: doALL

**** 04/09/25 14:43:48 **** PSpice 24.1.0 (22 October 2024) *** ID# 0 ********

 ** Profile: "SCHEMATIC1-AC"  [ C:\Cadence\Pspice sim\mc_cascode-PSpiceFiles\SCHEMATIC1\AC.sim ] 


 ****     SMALL SIGNAL BIAS SOLUTION       TEMPERATURE =   27.000 DEG C

 ****     Monte Carlo run 34               


******************************************************************************



 NODE   VOLTAGE     NODE   VOLTAGE     NODE   VOLTAGE     NODE   VOLTAGE


(  OUT)   27.1410  (N01228)    2.7002 (N01430)    3.6459 (N01866)   12.0000     

(N01936)   50.0000 (N21518)    6.6806 (N22961)    7.4468 (N26201)    2.7002     

(N26542)    0.0000 (N39220)   50.0000 (N43174)    0.0000 




    VOLTAGE SOURCE CURRENTS
    NAME         CURRENT

    V_V1        -1.155E-02
    V_V2        -7.734E-02
    V_V3         0.000E+00

    TOTAL POWER DISSIPATION   4.01E+00  WATTS

**** Param: R_R2.Value = 396.76408589750247
**** Param: C_C1.Value = 3.29795556505020m
**** Param: R_R3.Value = 1.06427048066329k
**** Param: R_R1.Value = 306.46750347533896
**** Param: C_C2.Value = 2.11282122592853
**** Param: C_C3.Value = 14.57129123813593p
**** Param: R_R5.Value = 71.63128236309970
**** Param: R_R6.Value = 1.80988125654673k
**** Param: R_R7.Value = 31.76632693476430
**** Param: D1N755(model).bv = 7.31137272255623

**** Command: doALL

**** 04/09/25 14:43:48 **** PSpice 24.1.0 (22 October 2024) *** ID# 0 ********

 ** Profile: "SCHEMATIC1-AC"  [ C:\Cadence\Pspice sim\mc_cascode-PSpiceFiles\SCHEMATIC1\AC.sim ] 


 ****     SMALL SIGNAL BIAS SOLUTION       TEMPERATURE =   27.000 DEG C

 ****     Monte Carlo run 35               


******************************************************************************



 NODE   VOLTAGE     NODE   VOLTAGE     NODE   VOLTAGE     NODE   VOLTAGE


(  OUT)   25.3680  (N01228)    2.6191 (N01430)    3.5712 (N01866)   12.0000     

(N01936)   50.0000 (N21518)    6.5040 (N22961)    7.2720 (N26201)    2.6191     

(N26542)    0.0000 (N39220)   50.0000 (N43174)    0.0000 




    VOLTAGE SOURCE CURRENTS
    NAME         CURRENT

    V_V1        -1.192E-02
    V_V2        -8.037E-02
    V_V3         0.000E+00

    TOTAL POWER DISSIPATION   4.16E+00  WATTS

**** Param: R_R2.Value = 372.96576659820107
**** Param: C_C1.Value = 3.46056367687002m
**** Param: R_R3.Value = 1.21455816446209k
**** Param: R_R1.Value = 301.14084202747949
**** Param: C_C2.Value = 267.67394024475851u
**** Param: C_C3.Value = 14.48953215124973p
**** Param: R_R5.Value = 63.73125970574032
**** Param: R_R6.Value = 1.81138267588574k
**** Param: R_R7.Value = 31.55864178907855
**** Param: D1N755(model).bv = 8.02060762352367

**** Command: doALL

**** 04/09/25 14:43:48 **** PSpice 24.1.0 (22 October 2024) *** ID# 0 ********

 ** Profile: "SCHEMATIC1-AC"  [ C:\Cadence\Pspice sim\mc_cascode-PSpiceFiles\SCHEMATIC1\AC.sim ] 


 ****     SMALL SIGNAL BIAS SOLUTION       TEMPERATURE =   27.000 DEG C

 ****     Monte Carlo run 36               


******************************************************************************



 NODE   VOLTAGE     NODE   VOLTAGE     NODE   VOLTAGE     NODE   VOLTAGE


(  OUT)   24.8650  (N01228)    2.7017 (N01430)    3.6572 (N01866)   12.0000     

(N01936)   50.0000 (N21518)    7.2068 (N22961)    7.9765 (N26201)    2.7017     

(N26542)    0.0000 (N39220)   50.0000 (N43174)    0.0000 




    VOLTAGE SOURCE CURRENTS
    NAME         CURRENT

    V_V1        -1.079E-02
    V_V2        -8.347E-02
    V_V3         0.000E+00

    TOTAL POWER DISSIPATION   4.30E+00  WATTS

**** Param: R_R2.Value = 402.51056919404596
**** Param: C_C1.Value = 3.36394146549882m
**** Param: R_R3.Value = 1.13200164440426k
**** Param: R_R1.Value = 309.16485091359499
**** Param: C_C2.Value = 265.93768120365002u
**** Param: C_C3.Value = 13.87940610980560p
**** Param: R_R5.Value = 68.89598798152177
**** Param: R_R6.Value = 1.80764165172406k
**** Param: R_R7.Value = 31.92693468652980
**** Param: D1N755(model).bv = 6.84892574846644

**** Command: doALL

**** 04/09/25 14:43:48 **** PSpice 24.1.0 (22 October 2024) *** ID# 0 ********

 ** Profile: "SCHEMATIC1-AC"  [ C:\Cadence\Pspice sim\mc_cascode-PSpiceFiles\SCHEMATIC1\AC.sim ] 


 ****     SMALL SIGNAL BIAS SOLUTION       TEMPERATURE =   27.000 DEG C

 ****     Monte Carlo run 37               


******************************************************************************



 NODE   VOLTAGE     NODE   VOLTAGE     NODE   VOLTAGE     NODE   VOLTAGE


(  OUT)   27.7770  (N01228)    2.3519 (N01430)    3.2880 (N01866)   12.0000     

(N01936)   50.0000 (N21518)    6.0512 (N22961)    6.8148 (N26201)    2.3519     

(N26542)    0.0000 (N39220)   50.0000 (N43174)    0.0000 




    VOLTAGE SOURCE CURRENTS
    NAME         CURRENT

    V_V1        -1.288E-02
    V_V2        -7.188E-02
    V_V3         0.000E+00

    TOTAL POWER DISSIPATION   3.75E+00  WATTS

**** Param: R_R2.Value = 375.00198595533487
**** Param: C_C1.Value = 3.38190832239753m
**** Param: R_R3.Value = 1.05589398036394k
**** Param: R_R1.Value = 293.35561237217280
**** Param: C_C2.Value = 312.51857051301613u
**** Param: C_C3.Value = 15.48300119022187p
**** Param: R_R5.Value = 69.59431120494297
**** Param: R_R6.Value = 1.84309735216729k
**** Param: R_R7.Value = 32.88352747092461
**** Param: D1N755(model).bv = 7.66665395062105

**** Command: doALL

**** 04/09/25 14:43:48 **** PSpice 24.1.0 (22 October 2024) *** ID# 0 ********

 ** Profile: "SCHEMATIC1-AC"  [ C:\Cadence\Pspice sim\mc_cascode-PSpiceFiles\SCHEMATIC1\AC.sim ] 


 ****     SMALL SIGNAL BIAS SOLUTION       TEMPERATURE =   27.000 DEG C

 ****     Monte Carlo run 38               


******************************************************************************



 NODE   VOLTAGE     NODE   VOLTAGE     NODE   VOLTAGE     NODE   VOLTAGE


(  OUT)   25.4250  (N01228)    2.8266 (N01430)    3.7848 (N01866)   12.0000     

(N01936)   50.0000 (N21518)    6.8562 (N22961)    7.6257 (N26201)    2.8266     

(N26542)    0.0000 (N39220)   50.0000 (N43174)    0.0000 




    VOLTAGE SOURCE CURRENTS
    NAME         CURRENT

    V_V1        -1.166E-02
    V_V2        -8.377E-02
    V_V3         0.000E+00

    TOTAL POWER DISSIPATION   4.33E+00  WATTS

**** Param: R_R2.Value = 398.96180012033557
**** Param: C_C1.Value = 3.56439680166021m
**** Param: R_R3.Value = 1.00797009903820k
**** Param: R_R1.Value = 301.62678410483392
**** Param: C_C2.Value = 317.11905270546583u
**** Param: C_C3.Value = 14.26110110782190p
**** Param: R_R5.Value = 65.07670458425872
**** Param: R_R6.Value = 1.85531382325223k
**** Param: R_R7.Value = 31.04581161398744
**** Param: D1N755(model).bv = 7.39171269875179

**** Command: doALL

**** 04/09/25 14:43:48 **** PSpice 24.1.0 (22 October 2024) *** ID# 0 ********

 ** Profile: "SCHEMATIC1-AC"  [ C:\Cadence\Pspice sim\mc_cascode-PSpiceFiles\SCHEMATIC1\AC.sim ] 


 ****     SMALL SIGNAL BIAS SOLUTION       TEMPERATURE =   27.000 DEG C

 ****     Monte Carlo run 39               


******************************************************************************



 NODE   VOLTAGE     NODE   VOLTAGE     NODE   VOLTAGE     NODE   VOLTAGE


(  OUT)   24.2100  (N01228)    2.7250 (N01430)    3.6874 (N01866)   12.0000     

(N01936)   50.0000 (N21518)    6.5802 (N22961)    7.3506 (N26201)    2.7250     

(N26542)    0.0000 (N39220)   50.0000 (N43174)    0.0000 




    VOLTAGE SOURCE CURRENTS
    NAME         CURRENT

    V_V1        -1.165E-02
    V_V2        -8.550E-02
    V_V3         0.000E+00

    TOTAL POWER DISSIPATION   4.41E+00  WATTS

**** Param: R_R2.Value = 390.19015227428463
**** Param: C_C1.Value = 3.16950865199744m
**** Param: R_R3.Value = 1.09629672263853k
**** Param: R_R1.Value = 290.49345960360330
**** Param: C_C2.Value = 305.09817804498431u
**** Param: C_C3.Value = 13.83188879055147p
**** Param: R_R5.Value = 69.63686244839919
**** Param: R_R6.Value = 1.72215721366514k
**** Param: R_R7.Value = 32.15499089133302
**** Param: D1N755(model).bv = 7.93216498306223

**** Command: doALL

**** 04/09/25 14:43:48 **** PSpice 24.1.0 (22 October 2024) *** ID# 0 ********

 ** Profile: "SCHEMATIC1-AC"  [ C:\Cadence\Pspice sim\mc_cascode-PSpiceFiles\SCHEMATIC1\AC.sim ] 


 ****     SMALL SIGNAL BIAS SOLUTION       TEMPERATURE =   27.000 DEG C

 ****     Monte Carlo run 40               


******************************************************************************



 NODE   VOLTAGE     NODE   VOLTAGE     NODE   VOLTAGE     NODE   VOLTAGE


(  OUT)   25.3730  (N01228)    2.7967 (N01430)    3.7555 (N01866)   12.0000     

(N01936)   50.0000 (N21518)    7.1163 (N22961)    7.8862 (N26201)    2.7967     

(N26542)    0.0000 (N39220)   50.0000 (N43174)    0.0000 




    VOLTAGE SOURCE CURRENTS
    NAME         CURRENT

    V_V1        -1.054E-02
    V_V2        -8.478E-02
    V_V3         0.000E+00

    TOTAL POWER DISSIPATION   4.37E+00  WATTS

**** Param: R_R2.Value = 404.58743976574897
**** Param: C_C1.Value = 3.49115970336009m
**** Param: R_R3.Value = 1.13729318029036k
**** Param: R_R1.Value = 301.22411574865617
**** Param: C_C2.Value = 311.66856898709068u
**** Param: C_C3.Value = 16.06996368297372p
**** Param: R_R5.Value = 65.86583116253141
**** Param: R_R6.Value = 1.85754625792551k
**** Param: R_R7.Value = 31.96753599713321
**** Param: D1N755(model).bv = 7.12432477797784

**** Command: doALL

**** 04/09/25 14:43:48 **** PSpice 24.1.0 (22 October 2024) *** ID# 0 ********

 ** Profile: "SCHEMATIC1-AC"  [ C:\Cadence\Pspice sim\mc_cascode-PSpiceFiles\SCHEMATIC1\AC.sim ] 


 ****     SMALL SIGNAL BIAS SOLUTION       TEMPERATURE =   27.000 DEG C

 ****     Monte Carlo run 41               


******************************************************************************



 NODE   VOLTAGE     NODE   VOLTAGE     NODE   VOLTAGE     NODE   VOLTAGE


(  OUT)   27.2240  (N01228)    2.4780 (N01430)    3.4209 (N01866)   12.0000     

(N01936)   50.0000 (N21518)    6.3216 (N22961)    7.0870 (N26201)    2.4780     

(N26542)    0.0000 (N39220)   50.0000 (N43174)    0.0000 




    VOLTAGE SOURCE CURRENTS
    NAME         CURRENT

    V_V1        -1.214E-02
    V_V2        -7.561E-02
    V_V3         0.000E+00

    TOTAL POWER DISSIPATION   3.93E+00  WATTS

**** Param: R_R2.Value = 389.15457284735038
**** Param: C_C1.Value = 3.61998931852168m
**** Param: R_R3.Value = 960.28635000697477
**** Param: R_R1.Value = 283.71221886960734
**** Param: C_C2.Value = 987.29859645374779m
**** Param: C_C3.Value = 14.78040406506546p
**** Param: R_R5.Value = 64.51345603997085
**** Param: R_R6.Value = 1.74916054643870k
**** Param: R_R7.Value = 34.20803954872883
**** Param: D1N755(model).bv = 7.09914700766015

**** Command: doALL

**** 04/09/25 14:43:48 **** PSpice 24.1.0 (22 October 2024) *** ID# 0 ********

 ** Profile: "SCHEMATIC1-AC"  [ C:\Cadence\Pspice sim\mc_cascode-PSpiceFiles\SCHEMATIC1\AC.sim ] 


 ****     SMALL SIGNAL BIAS SOLUTION       TEMPERATURE =   27.000 DEG C

 ****     Monte Carlo run 42               


******************************************************************************



 NODE   VOLTAGE     NODE   VOLTAGE     NODE   VOLTAGE     NODE   VOLTAGE


(  OUT)   28.0460  (N01228)    2.7146 (N01430)    3.6620 (N01866)   12.0000     

(N01936)   50.0000 (N21518)    6.2968 (N22961)    7.0626 (N26201)    2.7146     

(N26542)    0.0000 (N39220)   50.0000 (N43174)    0.0000 




    VOLTAGE SOURCE CURRENTS
    NAME         CURRENT

    V_V1        -1.269E-02
    V_V2        -7.738E-02
    V_V3         0.000E+00

    TOTAL POWER DISSIPATION   4.02E+00  WATTS

**** Param: R_R2.Value = 373.78058760117852
**** Param: C_C1.Value = 3.05256294442579m
**** Param: R_R3.Value = 1.19986869004232k
**** Param: R_R1.Value = 283.62245691037407
**** Param: C_C2.Value = 270.21588793603320u
**** Param: C_C3.Value = 13.67615283669545p
**** Param: R_R5.Value = 66.60642934660085
**** Param: R_R6.Value = 1.87488551499509k
**** Param: R_R7.Value = 32.52126837977862
**** Param: D1N755(model).bv = 7.39917447431867

**** Command: doALL

**** 04/09/25 14:43:48 **** PSpice 24.1.0 (22 October 2024) *** ID# 0 ********

 ** Profile: "SCHEMATIC1-AC"  [ C:\Cadence\Pspice sim\mc_cascode-PSpiceFiles\SCHEMATIC1\AC.sim ] 


 ****     SMALL SIGNAL BIAS SOLUTION       TEMPERATURE =   27.000 DEG C

 ****     Monte Carlo run 43               


******************************************************************************



 NODE   VOLTAGE     NODE   VOLTAGE     NODE   VOLTAGE     NODE   VOLTAGE


(  OUT)   28.4090  (N01228)    2.5374 (N01430)    3.4804 (N01866)   12.0000     

(N01936)   50.0000 (N21518)    6.5975 (N22961)    7.3628 (N26201)    2.5374     

(N26542)    0.0000 (N39220)   50.0000 (N43174)    0.0000 




    VOLTAGE SOURCE CURRENTS
    NAME         CURRENT

    V_V1        -1.241E-02
    V_V2        -7.612E-02
    V_V3         0.000E+00

    TOTAL POWER DISSIPATION   3.96E+00  WATTS

**** Param: R_R2.Value = 409.58777097951548
**** Param: C_C1.Value = 3.52254127628407m
**** Param: R_R3.Value = 1.09368695564090k
**** Param: R_R1.Value = 308.63853752698537
**** Param: C_C2.Value = 7.74165511368145
**** Param: C_C3.Value = 14.69306009094516p
**** Param: R_R5.Value = 66.08197929423173
**** Param: R_R6.Value = 1.63340601193212k
**** Param: R_R7.Value = 32.88084857102638
**** Param: D1N755(model).bv = 8.18220313119907

**** Command: doALL

**** 04/09/25 14:43:48 **** PSpice 24.1.0 (22 October 2024) *** ID# 0 ********

 ** Profile: "SCHEMATIC1-AC"  [ C:\Cadence\Pspice sim\mc_cascode-PSpiceFiles\SCHEMATIC1\AC.sim ] 


 ****     SMALL SIGNAL BIAS SOLUTION       TEMPERATURE =   27.000 DEG C

 ****     Monte Carlo run 44               


******************************************************************************



 NODE   VOLTAGE     NODE   VOLTAGE     NODE   VOLTAGE     NODE   VOLTAGE


(  OUT)   23.7140  (N01228)    2.8733 (N01430)    3.8322 (N01866)   12.0000     

(N01936)   50.0000 (N21518)    7.3599 (N22961)    8.1307 (N26201)    2.8733     

(N26542)    0.0000 (N39220)   50.0000 (N43174)    0.0000 




    VOLTAGE SOURCE CURRENTS
    NAME         CURRENT

    V_V1        -9.447E-03
    V_V2        -8.517E-02
    V_V3         0.000E+00

    TOTAL POWER DISSIPATION   4.37E+00  WATTS

**** Param: R_R2.Value = 384.34532654085916
**** Param: C_C1.Value = 3.12912350840785m
**** Param: R_R3.Value = 1.10337708387492k
**** Param: R_R1.Value = 291.41289568620914
**** Param: C_C2.Value = 7.36078411542100
**** Param: C_C3.Value = 16.33584093752861p
**** Param: R_R5.Value = 67.22881070654350
**** Param: R_R6.Value = 1.86538361267884k
**** Param: R_R7.Value = 30.03920368972515
**** Param: D1N755(model).bv = 8.16146580401013

**** Command: doALL

**** 04/09/25 14:43:48 **** PSpice 24.1.0 (22 October 2024) *** ID# 0 ********

 ** Profile: "SCHEMATIC1-AC"  [ C:\Cadence\Pspice sim\mc_cascode-PSpiceFiles\SCHEMATIC1\AC.sim ] 


 ****     SMALL SIGNAL BIAS SOLUTION       TEMPERATURE =   27.000 DEG C

 ****     Monte Carlo run 45               


******************************************************************************



 NODE   VOLTAGE     NODE   VOLTAGE     NODE   VOLTAGE     NODE   VOLTAGE


(  OUT)   22.8700  (N01228)    2.8721 (N01430)    3.8466 (N01866)   12.0000     

(N01936)   50.0000 (N21518)    7.3389 (N22961)    8.1128 (N26201)    2.8721     

(N26542)    0.0000 (N39220)   50.0000 (N43174)    0.0000 




    VOLTAGE SOURCE CURRENTS
    NAME         CURRENT

    V_V1        -1.011E-02
    V_V2        -9.310E-02
    V_V3         0.000E+00

    TOTAL POWER DISSIPATION   4.78E+00  WATTS

**** Param: R_R2.Value = 391.13381636746738
**** Param: C_C1.Value = 3.48886349070711m
**** Param: R_R3.Value = 1.10170061103538k
**** Param: R_R1.Value = 287.35049001348807
**** Param: C_C2.Value = 293.34720908230838u
**** Param: C_C3.Value = 14.64902188177130p
**** Param: R_R5.Value = 61.70230921408415
**** Param: R_R6.Value = 1.77687110491379k
**** Param: R_R7.Value = 31.21454391330617
**** Param: D1N755(model).bv = 7.73989837336344

**** Command: doALL

**** 04/09/25 14:43:48 **** PSpice 24.1.0 (22 October 2024) *** ID# 0 ********

 ** Profile: "SCHEMATIC1-AC"  [ C:\Cadence\Pspice sim\mc_cascode-PSpiceFiles\SCHEMATIC1\AC.sim ] 


 ****     SMALL SIGNAL BIAS SOLUTION       TEMPERATURE =   27.000 DEG C

 ****     Monte Carlo run 46               


******************************************************************************



 NODE   VOLTAGE     NODE   VOLTAGE     NODE   VOLTAGE     NODE   VOLTAGE


(  OUT)   25.6870  (N01228)    2.7097 (N01430)    3.6687 (N01866)   12.0000     

(N01936)   50.0000 (N21518)    6.9266 (N22961)    7.6962 (N26201)    2.7097     

(N26542)    0.0000 (N39220)   50.0000 (N43174)    0.0000 




    VOLTAGE SOURCE CURRENTS
    NAME         CURRENT

    V_V1        -1.100E-02
    V_V2        -8.461E-02
    V_V3         0.000E+00

    TOTAL POWER DISSIPATION   4.36E+00  WATTS

**** Param: R_R2.Value = 401.97938504087637
**** Param: C_C1.Value = 3.01280220954009m
**** Param: R_R3.Value = 1.15369401250582k
**** Param: R_R1.Value = 302.58115345353468
**** Param: C_C2.Value = 7.65986550828578
**** Param: C_C3.Value = 15.90809350871303p
**** Param: R_R5.Value = 67.78100821260260
**** Param: R_R6.Value = 1.81971719710703k
**** Param: R_R7.Value = 31.61010484282961
**** Param: D1N755(model).bv = 7.78425702688681

**** Command: doALL

**** 04/09/25 14:43:48 **** PSpice 24.1.0 (22 October 2024) *** ID# 0 ********

 ** Profile: "SCHEMATIC1-AC"  [ C:\Cadence\Pspice sim\mc_cascode-PSpiceFiles\SCHEMATIC1\AC.sim ] 


 ****     SMALL SIGNAL BIAS SOLUTION       TEMPERATURE =   27.000 DEG C

 ****     Monte Carlo run 47               


******************************************************************************



 NODE   VOLTAGE     NODE   VOLTAGE     NODE   VOLTAGE     NODE   VOLTAGE


(  OUT)   24.8850  (N01228)    2.6915 (N01430)    3.6470 (N01866)   12.0000     

(N01936)   50.0000 (N21518)    6.9701 (N22961)    7.7394 (N26201)    2.6915     

(N26542)    0.0000 (N39220)   50.0000 (N43174)    0.0000 




    VOLTAGE SOURCE CURRENTS
    NAME         CURRENT

    V_V1        -1.060E-02
    V_V2        -8.300E-02
    V_V3         0.000E+00

    TOTAL POWER DISSIPATION   4.28E+00  WATTS

**** Param: R_R2.Value = 395.92378340053682
**** Param: C_C1.Value = 3.48330423902097m
**** Param: R_R3.Value = 937.96629324347668
**** Param: R_R1.Value = 309.81699243633500
**** Param: C_C2.Value = 5.78114606494339
**** Param: C_C3.Value = 15.61969359416486p
**** Param: R_R5.Value = 64.37056056750463
**** Param: R_R6.Value = 1.79757810107998k
**** Param: R_R7.Value = 34.67651416216379
**** Param: D1N755(model).bv = 6.83816797387616

**** Command: doALL

**** 04/09/25 14:43:48 **** PSpice 24.1.0 (22 October 2024) *** ID# 0 ********

 ** Profile: "SCHEMATIC1-AC"  [ C:\Cadence\Pspice sim\mc_cascode-PSpiceFiles\SCHEMATIC1\AC.sim ] 


 ****     SMALL SIGNAL BIAS SOLUTION       TEMPERATURE =   27.000 DEG C

 ****     Monte Carlo run 48               


******************************************************************************



 NODE   VOLTAGE     NODE   VOLTAGE     NODE   VOLTAGE     NODE   VOLTAGE


(  OUT)   26.7820  (N01228)    2.6651 (N01430)    3.6086 (N01866)   12.0000     

(N01936)   50.0000 (N21518)    6.0386 (N22961)    6.8037 (N26201)    2.6651     

(N26542)    0.0000 (N39220)   50.0000 (N43174)    0.0000 




    VOLTAGE SOURCE CURRENTS
    NAME         CURRENT

    V_V1        -1.312E-02
    V_V2        -7.494E-02
    V_V3         0.000E+00

    TOTAL POWER DISSIPATION   3.90E+00  WATTS

**** Param: R_R2.Value = 379.63854301931855
**** Param: C_C1.Value = 3.06581652272103m
**** Param: R_R3.Value = 1.25023797628500k
**** Param: R_R1.Value = 301.34666952699155
**** Param: C_C2.Value = 302.57637256996372u
**** Param: C_C3.Value = 16.26744895779290p
**** Param: R_R5.Value = 66.81242638984415
**** Param: R_R6.Value = 1.82131724983327k
**** Param: R_R7.Value = 31.93058776074862
**** Param: D1N755(model).bv = 6.98387859736930

**** Command: doALL

**** 04/09/25 14:43:48 **** PSpice 24.1.0 (22 October 2024) *** ID# 0 ********

 ** Profile: "SCHEMATIC1-AC"  [ C:\Cadence\Pspice sim\mc_cascode-PSpiceFiles\SCHEMATIC1\AC.sim ] 


 ****     SMALL SIGNAL BIAS SOLUTION       TEMPERATURE =   27.000 DEG C

 ****     Monte Carlo run 49               


******************************************************************************



 NODE   VOLTAGE     NODE   VOLTAGE     NODE   VOLTAGE     NODE   VOLTAGE


(  OUT)   28.9920  (N01228)    2.2801 (N01430)    3.2111 (N01866)   12.0000     

(N01936)   50.0000 (N21518)    6.1895 (N22961)    6.9517 (N26201)    2.2801     

(N26542)    0.0000 (N39220)   50.0000 (N43174)    0.0000 




    VOLTAGE SOURCE CURRENTS
    NAME         CURRENT

    V_V1        -1.330E-02
    V_V2        -6.971E-02
    V_V3         0.000E+00

    TOTAL POWER DISSIPATION   3.65E+00  WATTS

**** Param: R_R2.Value = 378.24714872465057
**** Param: C_C1.Value = 3.31414990691855m
**** Param: R_R3.Value = 1.18563313890508k
**** Param: R_R1.Value = 285.42187106988746
**** Param: C_C2.Value = 16.10616819086276
**** Param: C_C3.Value = 14.82517471846675p
**** Param: R_R5.Value = 64.28775689968478
**** Param: R_R6.Value = 1.83815356063823k
**** Param: R_R7.Value = 31.74419077191796
**** Param: D1N755(model).bv = 8.21159245582446

**** Command: doALL

**** 04/09/25 14:43:48 **** PSpice 24.1.0 (22 October 2024) *** ID# 0 ********

 ** Profile: "SCHEMATIC1-AC"  [ C:\Cadence\Pspice sim\mc_cascode-PSpiceFiles\SCHEMATIC1\AC.sim ] 


 ****     SMALL SIGNAL BIAS SOLUTION       TEMPERATURE =   27.000 DEG C

 ****     Monte Carlo run 50               


******************************************************************************



 NODE   VOLTAGE     NODE   VOLTAGE     NODE   VOLTAGE     NODE   VOLTAGE


(  OUT)   25.1950  (N01228)    2.8305 (N01430)    3.7924 (N01866)   12.0000     

(N01936)   50.0000 (N21518)    7.3933 (N22961)    8.1642 (N26201)    2.8305     

(N26542)    0.0000 (N39220)   50.0000 (N43174)    0.0000 




    VOLTAGE SOURCE CURRENTS
    NAME         CURRENT

    V_V1        -1.014E-02
    V_V2        -8.691E-02
    V_V3         0.000E+00

    TOTAL POWER DISSIPATION   4.47E+00  WATTS

**** Param: R_R2.Value = 397.99749694092918
**** Param: C_C1.Value = 3.54445600756859m
**** Param: R_R3.Value = 1.02688279272547k
**** Param: R_R1.Value = 297.14133494941359
**** Param: C_C2.Value = 264.49549851985233u
**** Param: C_C3.Value = 15.75189977721488p
**** Param: R_R5.Value = 64.81391506320281
**** Param: R_R6.Value = 1.77483009563074k
**** Param: R_R7.Value = 32.24255692902256
**** Param: D1N755(model).bv = 8.23892178106021

**** Command: doALL

**** 04/09/25 14:43:48 **** PSpice 24.1.0 (22 October 2024) *** ID# 0 ********

 ** Profile: "SCHEMATIC1-AC"  [ C:\Cadence\Pspice sim\mc_cascode-PSpiceFiles\SCHEMATIC1\AC.sim ] 


 ****     SMALL SIGNAL BIAS SOLUTION       TEMPERATURE =   27.000 DEG C

 ****     Monte Carlo run 51               


******************************************************************************



 NODE   VOLTAGE     NODE   VOLTAGE     NODE   VOLTAGE     NODE   VOLTAGE


(  OUT)   22.6240  (N01228)    3.0508 (N01430)    4.0239 (N01866)   12.0000     

(N01936)   50.0000 (N21518)    7.4134 (N22961)    8.1871 (N26201)    3.0508     

(N26542)    0.0000 (N39220)   50.0000 (N43174)    0.0000 




    VOLTAGE SOURCE CURRENTS
    NAME         CURRENT

    V_V1        -9.580E-03
    V_V2        -9.213E-02
    V_V3         0.000E+00

    TOTAL POWER DISSIPATION   4.72E+00  WATTS

**** Param: R_R2.Value = 362.65025884904031
**** Param: C_C1.Value = 3.13637470625935m
**** Param: R_R3.Value = 1.02166538110491k
**** Param: R_R1.Value = 291.18137617727643
**** Param: C_C2.Value = 284.26306955168309u
**** Param: C_C3.Value = 15.36095767082736p
**** Param: R_R5.Value = 70.39888205403841
**** Param: R_R6.Value = 1.88616751426588k
**** Param: R_R7.Value = 31.85199447826951
**** Param: D1N755(model).bv = 7.91948454237495

**** Command: doALL

**** 04/09/25 14:43:48 **** PSpice 24.1.0 (22 October 2024) *** ID# 0 ********

 ** Profile: "SCHEMATIC1-AC"  [ C:\Cadence\Pspice sim\mc_cascode-PSpiceFiles\SCHEMATIC1\AC.sim ] 


 ****     SMALL SIGNAL BIAS SOLUTION       TEMPERATURE =   27.000 DEG C

 ****     Monte Carlo run 52               


******************************************************************************



 NODE   VOLTAGE     NODE   VOLTAGE     NODE   VOLTAGE     NODE   VOLTAGE


(  OUT)   23.5930  (N01228)    2.9665 (N01430)    3.9378 (N01866)   12.0000     

(N01936)   50.0000 (N21518)    7.1035 (N22961)    7.8762 (N26201)    2.9665     

(N26542)    0.0000 (N39220)   50.0000 (N43174)    0.0000 




    VOLTAGE SOURCE CURRENTS
    NAME         CURRENT

    V_V1        -1.137E-02
    V_V2        -9.069E-02
    V_V3         0.000E+00

    TOTAL POWER DISSIPATION   4.67E+00  WATTS

**** Param: R_R2.Value = 392.71319521883782
**** Param: C_C1.Value = 3.40346049378948m
**** Param: R_R3.Value = 1.18889127249232k
**** Param: R_R1.Value = 297.11148184981545
**** Param: C_C2.Value = 16.85204056245613
**** Param: C_C3.Value = 15.49252296517838p
**** Param: R_R5.Value = 65.21209364588290
**** Param: R_R6.Value = 1.81086759041908k
**** Param: R_R7.Value = 33.00528779210542
**** Param: D1N755(model).bv = 7.38306070131535

**** Command: doALL

**** 04/09/25 14:43:48 **** PSpice 24.1.0 (22 October 2024) *** ID# 0 ********

 ** Profile: "SCHEMATIC1-AC"  [ C:\Cadence\Pspice sim\mc_cascode-PSpiceFiles\SCHEMATIC1\AC.sim ] 


 ****     SMALL SIGNAL BIAS SOLUTION       TEMPERATURE =   27.000 DEG C

 ****     Monte Carlo run 53               


******************************************************************************



 NODE   VOLTAGE     NODE   VOLTAGE     NODE   VOLTAGE     NODE   VOLTAGE


(  OUT)   27.7930  (N01228)    2.5281 (N01430)    3.4685 (N01866)   12.0000     

(N01936)   50.0000 (N21518)    6.5796 (N22961)    7.3445 (N26201)    2.5281     

(N26542)    0.0000 (N39220)   50.0000 (N43174)    0.0000 




    VOLTAGE SOURCE CURRENTS
    NAME         CURRENT

    V_V1        -1.185E-02
    V_V2        -7.474E-02
    V_V3         0.000E+00

    TOTAL POWER DISSIPATION   3.88E+00  WATTS

**** Param: R_R2.Value = 409.18014719708805
**** Param: C_C1.Value = 3.32677907650990m
**** Param: R_R3.Value = 1.10205779768848k
**** Param: R_R1.Value = 299.19647919811945
**** Param: C_C2.Value = 297.69792779320665u
**** Param: C_C3.Value = 14.69086275826289p
**** Param: R_R5.Value = 66.69811822663267
**** Param: R_R6.Value = 1.67212009485343k
**** Param: R_R7.Value = 33.74759055677329
**** Param: D1N755(model).bv = 7.04476302377392

**** Command: doALL

**** 04/09/25 14:43:48 **** PSpice 24.1.0 (22 October 2024) *** ID# 0 ********

 ** Profile: "SCHEMATIC1-AC"  [ C:\Cadence\Pspice sim\mc_cascode-PSpiceFiles\SCHEMATIC1\AC.sim ] 


 ****     SMALL SIGNAL BIAS SOLUTION       TEMPERATURE =   27.000 DEG C

 ****     Monte Carlo run 54               


******************************************************************************



 NODE   VOLTAGE     NODE   VOLTAGE     NODE   VOLTAGE     NODE   VOLTAGE


(  OUT)   28.7990  (N01228)    2.4501 (N01430)    3.3838 (N01866)   12.0000     

(N01936)   50.0000 (N21518)    6.2447 (N22961)    7.0076 (N26201)    2.4501     

(N26542)    0.0000 (N39220)   50.0000 (N43174)    0.0000 




    VOLTAGE SOURCE CURRENTS
    NAME         CURRENT

    V_V1        -1.220E-02
    V_V2        -7.086E-02
    V_V3         0.000E+00

    TOTAL POWER DISSIPATION   3.69E+00  WATTS

**** Param: R_R2.Value = 367.46253505332936
**** Param: C_C1.Value = 3.22701467940306m
**** Param: R_R3.Value = 1.10435646663341k
**** Param: R_R1.Value = 282.73019655287618
**** Param: C_C2.Value = 290.09222693563646u
**** Param: C_C3.Value = 13.96766563921018p
**** Param: R_R5.Value = 68.46478960184913
**** Param: R_R6.Value = 1.78249448614861k
**** Param: R_R7.Value = 33.10371575933392
**** Param: D1N755(model).bv = 7.79602191228980

**** Command: doALL

**** 04/09/25 14:43:48 **** PSpice 24.1.0 (22 October 2024) *** ID# 0 ********

 ** Profile: "SCHEMATIC1-AC"  [ C:\Cadence\Pspice sim\mc_cascode-PSpiceFiles\SCHEMATIC1\AC.sim ] 


 ****     SMALL SIGNAL BIAS SOLUTION       TEMPERATURE =   27.000 DEG C

 ****     Monte Carlo run 55               


******************************************************************************



 NODE   VOLTAGE     NODE   VOLTAGE     NODE   VOLTAGE     NODE   VOLTAGE


(  OUT)   26.7540  (N01228)    2.7915 (N01430)    3.7459 (N01866)   12.0000     

(N01936)   50.0000 (N21518)    6.9863 (N22961)    7.7547 (N26201)    2.7915     

(N26542)    0.0000 (N39220)   50.0000 (N43174)    0.0000 




    VOLTAGE SOURCE CURRENTS
    NAME         CURRENT

    V_V1        -1.155E-02
    V_V2        -8.222E-02
    V_V3         0.000E+00

    TOTAL POWER DISSIPATION   4.25E+00  WATTS

**** Param: R_R2.Value = 385.77104772903431
**** Param: C_C1.Value = 3.42174962614826m
**** Param: R_R3.Value = 1.06769280218701k
**** Param: R_R1.Value = 308.35576246836990
**** Param: C_C2.Value = 3.68879705526902
**** Param: C_C3.Value = 14.09877315591907p
**** Param: R_R5.Value = 71.48982666165483
**** Param: R_R6.Value = 1.86085026124196k
**** Param: R_R7.Value = 32.50130062001674
**** Param: D1N755(model).bv = 8.23118533890805

**** Command: doALL

[...]
**** Param: R_R6.Value = 1.86148346089475k
**** Param: R_R7.Value = 35.28303821744347
**** Param: D1N755(model).bv = 7.54932554094058

**** Command: doALL

**** 04/09/25 14:43:48 **** PSpice 24.1.0 (22 October 2024) *** ID# 0 ********

 ** Profile: "SCHEMATIC1-AC"  [ C:\Cadence\Pspice sim\mc_cascode-PSpiceFiles\SCHEMATIC1\AC.sim ] 


 ****     SMALL SIGNAL BIAS SOLUTION       TEMPERATURE =   27.000 DEG C

 ****     Monte Carlo run 236              


******************************************************************************



 NODE   VOLTAGE     NODE   VOLTAGE     NODE   VOLTAGE     NODE   VOLTAGE


(  OUT)   27.0990  (N01228)    2.7190 (N01430)    3.6603 (N01866)   12.0000     

(N01936)   50.0000 (N21518)    6.7441 (N22961)    7.5095 (N26201)    2.7190     

(N26542)    0.0000 (N39220)   50.0000 (N43174)    0.0000 




    VOLTAGE SOURCE CURRENTS
    NAME         CURRENT

    V_V1        -1.157E-02
    V_V2        -7.518E-02
    V_V3         0.000E+00

    TOTAL POWER DISSIPATION   3.90E+00  WATTS

**** Param: R_R2.Value = 378.75041900144538
**** Param: C_C1.Value = 3.36603625598926m
**** Param: R_R3.Value = 1.12303392119086k
**** Param: R_R1.Value = 301.94460279703281
**** Param: C_C2.Value = 18.02761354747154
**** Param: C_C3.Value = 15.18672750022889p
**** Param: R_R5.Value = 66.16757825584043
**** Param: R_R6.Value = 1.79112045968307k
**** Param: R_R7.Value = 31.87589602101549
**** Param: D1N755(model).bv = 8.06395916623432

**** Command: doALL

**** 04/09/25 14:43:48 **** PSpice 24.1.0 (22 October 2024) *** ID# 0 ********

 ** Profile: "SCHEMATIC1-AC"  [ C:\Cadence\Pspice sim\mc_cascode-PSpiceFiles\SCHEMATIC1\AC.sim ] 


 ****     SMALL SIGNAL BIAS SOLUTION       TEMPERATURE =   27.000 DEG C

 ****     Monte Carlo run 237              


******************************************************************************



 NODE   VOLTAGE     NODE   VOLTAGE     NODE   VOLTAGE     NODE   VOLTAGE


(  OUT)   23.8040  (N01228)    2.8381 (N01430)    3.8004 (N01866)   12.0000     

(N01936)   50.0000 (N21518)    7.2465 (N22961)    8.0178 (N26201)    2.8381     

(N26542)    0.0000 (N39220)   50.0000 (N43174)    0.0000 




    VOLTAGE SOURCE CURRENTS
    NAME         CURRENT

    V_V1        -1.051E-02
    V_V2        -8.676E-02
    V_V3         0.000E+00

    TOTAL POWER DISSIPATION   4.46E+00  WATTS

**** Param: R_R2.Value = 375.05364127454203
**** Param: C_C1.Value = 3.06835444196905m
**** Param: R_R3.Value = 1.13210210433571k
**** Param: R_R1.Value = 303.46246103391383
**** Param: C_C2.Value = 2.27273821558275
**** Param: C_C3.Value = 15.36645100253303p
**** Param: R_R5.Value = 73.93301409218763
**** Param: R_R6.Value = 1.97912387054136k
**** Param: R_R7.Value = 33.08643253418405
**** Param: D1N755(model).bv = 7.52089754936369

**** Command: doALL

**** 04/09/25 14:43:48 **** PSpice 24.1.0 (22 October 2024) *** ID# 0 ********

 ** Profile: "SCHEMATIC1-AC"  [ C:\Cadence\Pspice sim\mc_cascode-PSpiceFiles\SCHEMATIC1\AC.sim ] 


 ****     SMALL SIGNAL BIAS SOLUTION       TEMPERATURE =   27.000 DEG C

 ****     Monte Carlo run 238              


******************************************************************************



 NODE   VOLTAGE     NODE   VOLTAGE     NODE   VOLTAGE     NODE   VOLTAGE


(  OUT)   25.5940  (N01228)    2.7295 (N01430)    3.6812 (N01866)   12.0000     

(N01936)   50.0000 (N21518)    6.7145 (N22961)    7.4825 (N26201)    2.7295     

(N26542)    0.0000 (N39220)   50.0000 (N43174)    0.0000 




    VOLTAGE SOURCE CURRENTS
    NAME         CURRENT

    V_V1        -1.205E-02
    V_V2        -8.042E-02
    V_V3         0.000E+00

    TOTAL POWER DISSIPATION   4.17E+00  WATTS

**** Param: R_R2.Value = 388.57857008917387
**** Param: C_C1.Value = 3.00015289773247m
**** Param: R_R3.Value = 1.16027347631471k
**** Param: R_R1.Value = 311.05523889312758
**** Param: C_C2.Value = 2.04445976470229
**** Param: C_C3.Value = 14.27098910489212p
**** Param: R_R5.Value = 61.77476141162120
**** Param: R_R6.Value = 1.88269708027061k
**** Param: R_R7.Value = 33.83028297152414
**** Param: D1N755(model).bv = 6.89973906674398

**** Command: doALL

**** 04/09/25 14:43:48 **** PSpice 24.1.0 (22 October 2024) *** ID# 0 ********

 ** Profile: "SCHEMATIC1-AC"  [ C:\Cadence\Pspice sim\mc_cascode-PSpiceFiles\SCHEMATIC1\AC.sim ] 


 ****     SMALL SIGNAL BIAS SOLUTION       TEMPERATURE =   27.000 DEG C

 ****     Monte Carlo run 239              


******************************************************************************



 NODE   VOLTAGE     NODE   VOLTAGE     NODE   VOLTAGE     NODE   VOLTAGE


(  OUT)   28.2700  (N01228)    2.4214 (N01430)    3.3536 (N01866)   12.0000     

(N01936)   50.0000 (N21518)    6.1046 (N22961)    6.8671 (N26201)    2.4214     

(N26542)    0.0000 (N39220)   50.0000 (N43174)    0.0000 




    VOLTAGE SOURCE CURRENTS
    NAME         CURRENT

    V_V1        -1.321E-02
    V_V2        -6.986E-02
    V_V3         0.000E+00

    TOTAL POWER DISSIPATION   3.65E+00  WATTS

**** Param: R_R2.Value = 372.92244278209188
**** Param: C_C1.Value = 3.53396191290017m
**** Param: R_R3.Value = 1.06459064331124k
**** Param: R_R1.Value = 305.70137814602003
**** Param: C_C2.Value = 272.61281167027801u
**** Param: C_C3.Value = 14.47964415417951p
**** Param: R_R5.Value = 62.39823708098174
**** Param: R_R6.Value = 1.69899232300102k
**** Param: R_R7.Value = 32.43102818575809
**** Param: D1N755(model).bv = 6.75938444166387

**** Command: doALL

**** 04/09/25 14:43:48 **** PSpice 24.1.0 (22 October 2024) *** ID# 0 ********

 ** Profile: "SCHEMATIC1-AC"  [ C:\Cadence\Pspice sim\mc_cascode-PSpiceFiles\SCHEMATIC1\AC.sim ] 


 ****     SMALL SIGNAL BIAS SOLUTION       TEMPERATURE =   27.000 DEG C

 ****     Monte Carlo run 240              


******************************************************************************



 NODE   VOLTAGE     NODE   VOLTAGE     NODE   VOLTAGE     NODE   VOLTAGE


(  OUT)   28.2690  (N01228)    2.3625 (N01430)    3.2974 (N01866)   12.0000     

(N01936)   50.0000 (N21518)    5.9663 (N22961)    6.7293 (N26201)    2.3625     

(N26542)    0.0000 (N39220)   50.0000 (N43174)    0.0000 




    VOLTAGE SOURCE CURRENTS
    NAME         CURRENT

    V_V1        -1.413E-02
    V_V2        -7.109E-02
    V_V3         0.000E+00

    TOTAL POWER DISSIPATION   3.72E+00  WATTS

**** Param: R_R2.Value = 377.82528981616082
**** Param: C_C1.Value = 3.34923764763329m
**** Param: R_R3.Value = 1.13794058156202k
**** Param: R_R1.Value = 294.38559758838932
**** Param: C_C2.Value = 322.00152592547380u
**** Param: C_C3.Value = 13.84424878688925p
**** Param: R_R5.Value = 69.80626294833364
**** Param: R_R6.Value = 1.77329344660932k
**** Param: R_R7.Value = 32.27058749554693
**** Param: D1N755(model).bv = 8.15144047364727

**** Command: doALL

**** 04/09/25 14:43:48 **** PSpice 24.1.0 (22 October 2024) *** ID# 0 ********

 ** Profile: "SCHEMATIC1-AC"  [ C:\Cadence\Pspice sim\mc_cascode-PSpiceFiles\SCHEMATIC1\AC.sim ] 


 ****     SMALL SIGNAL BIAS SOLUTION       TEMPERATURE =   27.000 DEG C

 ****     Monte Carlo run 241              


******************************************************************************



 NODE   VOLTAGE     NODE   VOLTAGE     NODE   VOLTAGE     NODE   VOLTAGE


(  OUT)   24.6030  (N01228)    2.8565 (N01430)    3.8176 (N01866)   12.0000     

(N01936)   50.0000 (N21518)    7.3336 (N22961)    8.1044 (N26201)    2.8565     

(N26542)    0.0000 (N39220)   50.0000 (N43174)    0.0000 




    VOLTAGE SOURCE CURRENTS
    NAME         CURRENT

    V_V1        -1.031E-02
    V_V2        -8.627E-02
    V_V3         0.000E+00

    TOTAL POWER DISSIPATION   4.44E+00  WATTS

**** Param: R_R2.Value = 390.98675183346495
**** Param: C_C1.Value = 3.34249000518815m
**** Param: R_R3.Value = 1.17330097287478k
**** Param: R_R1.Value = 300.44008580776671
**** Param: C_C2.Value = 295.20432142094182u
**** Param: C_C3.Value = 14.46481215857417p
**** Param: R_R5.Value = 65.90518947904998
**** Param: R_R6.Value = 1.80915246540773k
**** Param: R_R7.Value = 33.26202661483441
**** Param: D1N755(model).bv = 7.73673970763268

**** Command: doALL

**** 04/09/25 14:43:48 **** PSpice 24.1.0 (22 October 2024) *** ID# 0 ********

 ** Profile: "SCHEMATIC1-AC"  [ C:\Cadence\Pspice sim\mc_cascode-PSpiceFiles\SCHEMATIC1\AC.sim ] 


 ****     SMALL SIGNAL BIAS SOLUTION       TEMPERATURE =   27.000 DEG C

 ****     Monte Carlo run 242              


******************************************************************************



 NODE   VOLTAGE     NODE   VOLTAGE     NODE   VOLTAGE     NODE   VOLTAGE


(  OUT)   26.2680  (N01228)    2.6938 (N01430)    3.6417 (N01866)   12.0000     

(N01936)   50.0000 (N21518)    6.9268 (N22961)    7.6941 (N26201)    2.6938     

(N26542)    0.0000 (N39220)   50.0000 (N43174)    0.0000 




    VOLTAGE SOURCE CURRENTS
    NAME         CURRENT

    V_V1        -1.101E-02
    V_V2        -7.899E-02
    V_V3         0.000E+00

    TOTAL POWER DISSIPATION   4.08E+00  WATTS

**** Param: R_R2.Value = 397.33000390566292
**** Param: C_C1.Value = 3.29974822229682m
**** Param: R_R3.Value = 1.08939495472868k
**** Param: R_R1.Value = 288.74121014598842
**** Param: C_C2.Value = 319.42332224494157u
**** Param: C_C3.Value = 14.91297647022919p
**** Param: R_R5.Value = 72.80012730456082
**** Param: R_R6.Value = 1.86413959803644k
**** Param: R_R7.Value = 30.40266698179080
**** Param: D1N755(model).bv = 6.85991241187780

**** Command: doALL

**** 04/09/25 14:43:48 **** PSpice 24.1.0 (22 October 2024) *** ID# 0 ********

 ** Profile: "SCHEMATIC1-AC"  [ C:\Cadence\Pspice sim\mc_cascode-PSpiceFiles\SCHEMATIC1\AC.sim ] 


 ****     SMALL SIGNAL BIAS SOLUTION       TEMPERATURE =   27.000 DEG C

 ****     Monte Carlo run 243              


******************************************************************************



 NODE   VOLTAGE     NODE   VOLTAGE     NODE   VOLTAGE     NODE   VOLTAGE


(  OUT)   27.8920  (N01228)    2.3869 (N01430)    3.3323 (N01866)   12.0000     

(N01936)   50.0000 (N21518)    6.0604 (N22961)    6.8258 (N26201)    2.3869     

(N26542)    0.0000 (N39220)   50.0000 (N43174)    0.0000 




    VOLTAGE SOURCE CURRENTS
    NAME         CURRENT

    V_V1        -1.302E-02
    V_V2        -7.657E-02
    V_V3         0.000E+00

    TOTAL POWER DISSIPATION   3.98E+00  WATTS

**** Param: R_R2.Value = 369.81911104684269
**** Param: C_C1.Value = 3.22699453718680m
**** Param: R_R3.Value = 1.05079751372314k
**** Param: R_R1.Value = 313.68238678032543
**** Param: C_C2.Value = 13.29358235755486
**** Param: C_C3.Value = 15.22051149021882p
**** Param: R_R5.Value = 67.57124147109154
**** Param: R_R6.Value = 1.77328401931471k
**** Param: R_R7.Value = 34.40874057770310
**** Param: D1N755(model).bv = 7.53293710135197

**** Command: doALL

**** 04/09/25 14:43:48 **** PSpice 24.1.0 (22 October 2024) *** ID# 0 ********

 ** Profile: "SCHEMATIC1-AC"  [ C:\Cadence\Pspice sim\mc_cascode-PSpiceFiles\SCHEMATIC1\AC.sim ] 


 ****     SMALL SIGNAL BIAS SOLUTION       TEMPERATURE =   27.000 DEG C

 ****     Monte Carlo run 244              


******************************************************************************



 NODE   VOLTAGE     NODE   VOLTAGE     NODE   VOLTAGE     NODE   VOLTAGE


(  OUT)   25.2040  (N01228)    2.7898 (N01430)    3.7391 (N01866)   12.0000     

(N01936)   50.0000 (N21518)    6.7266 (N22961)    7.4943 (N26201)    2.7898     

(N26542)    0.0000 (N39220)   50.0000 (N43174)    0.0000 




    VOLTAGE SOURCE CURRENTS
    NAME         CURRENT

    V_V1        -1.218E-02
    V_V2        -7.905E-02
    V_V3         0.000E+00

    TOTAL POWER DISSIPATION   4.10E+00  WATTS

**** Param: R_R2.Value = 371.59932032205501
**** Param: C_C1.Value = 3.53823206274606m
**** Param: R_R3.Value = 1.07173135045018k
**** Param: R_R1.Value = 305.38579539447272
**** Param: C_C2.Value = 19.82942634693442
**** Param: C_C3.Value = 14.18648335215308p
**** Param: R_R5.Value = 62.96343497656679
**** Param: R_R6.Value = 1.78419611282570k
**** Param: R_R7.Value = 31.48641827541176
**** Param: D1N755(model).bv = 7.28317361980041

**** Command: doALL

**** 04/09/25 14:43:48 **** PSpice 24.1.0 (22 October 2024) *** ID# 0 ********

 ** Profile: "SCHEMATIC1-AC"  [ C:\Cadence\Pspice sim\mc_cascode-PSpiceFiles\SCHEMATIC1\AC.sim ] 


 ****     SMALL SIGNAL BIAS SOLUTION       TEMPERATURE =   27.000 DEG C

 ****     Monte Carlo run 245              


******************************************************************************



 NODE   VOLTAGE     NODE   VOLTAGE     NODE   VOLTAGE     NODE   VOLTAGE


(  OUT)   25.6110  (N01228)    2.5793 (N01430)    3.5303 (N01866)   12.0000     

(N01936)   50.0000 (N21518)    6.4794 (N22961)    7.2471 (N26201)    2.5793     

(N26542)    0.0000 (N39220)   50.0000 (N43174)    0.0000 




    VOLTAGE SOURCE CURRENTS
    NAME         CURRENT

    V_V1        -1.279E-02
    V_V2        -7.986E-02
    V_V3         0.000E+00

    TOTAL POWER DISSIPATION   4.15E+00  WATTS

**** Param: R_R2.Value = 382.15340670102069
**** Param: C_C1.Value = 3.59301889095737m
**** Param: R_R3.Value = 924.49525940983051
**** Param: R_R1.Value = 314.67785337370708
**** Param: C_C2.Value = 11.24884222266305
**** Param: C_C3.Value = 15.82999664296396p
**** Param: R_R5.Value = 69.39742545143747
**** Param: R_R6.Value = 1.83189467185513k
**** Param: R_R7.Value = 33.13154175182520
**** Param: D1N755(model).bv = 6.81605731376080

**** Command: doALL

**** 04/09/25 14:43:48 **** PSpice 24.1.0 (22 October 2024) *** ID# 0 ********

 ** Profile: "SCHEMATIC1-AC"  [ C:\Cadence\Pspice sim\mc_cascode-PSpiceFiles\SCHEMATIC1\AC.sim ] 


 ****     SMALL SIGNAL BIAS SOLUTION       TEMPERATURE =   27.000 DEG C

 ****     Monte Carlo run 246              


******************************************************************************



 NODE   VOLTAGE     NODE   VOLTAGE     NODE   VOLTAGE     NODE   VOLTAGE


(  OUT)   25.4750  (N01228)    2.6494 (N01430)    3.5989 (N01866)   12.0000     

(N01936)   50.0000 (N21518)    6.0164 (N22961)    6.7832 (N26201)    2.6494     

(N26542)    0.0000 (N39220)   50.0000 (N43174)    0.0000 




    VOLTAGE SOURCE CURRENTS
    NAME         CURRENT

    V_V1        -1.365E-02
    V_V2        -7.794E-02
    V_V3         0.000E+00

    TOTAL POWER DISSIPATION   4.06E+00  WATTS

**** Param: R_R2.Value = 365.10043475740872
**** Param: C_C1.Value = 3.33566179387799m
**** Param: R_R3.Value = 1.12674424132546k
**** Param: R_R1.Value = 287.05183767166994
**** Param: C_C2.Value = 301.80693990905485u
**** Param: C_C3.Value = 15.69431134983367p
**** Param: R_R5.Value = 66.56462406429560
**** Param: R_R6.Value = 1.76508936434774k
**** Param: R_R7.Value = 32.83608501788822
**** Param: D1N755(model).bv = 8.11719870601520

**** Command: doALL

**** 04/09/25 14:43:48 **** PSpice 24.1.0 (22 October 2024) *** ID# 0 ********

 ** Profile: "SCHEMATIC1-AC"  [ C:\Cadence\Pspice sim\mc_cascode-PSpiceFiles\SCHEMATIC1\AC.sim ] 


 ****     SMALL SIGNAL BIAS SOLUTION       TEMPERATURE =   27.000 DEG C

 ****     Monte Carlo run 247              


******************************************************************************



 NODE   VOLTAGE     NODE   VOLTAGE     NODE   VOLTAGE     NODE   VOLTAGE


(  OUT)   25.5190  (N01228)    2.8730 (N01430)    3.8323 (N01866)   12.0000     

(N01936)   50.0000 (N21518)    7.3020 (N22961)    8.0721 (N26201)    2.8730     

(N26542)    0.0000 (N39220)   50.0000 (N43174)    0.0000 




    VOLTAGE SOURCE CURRENTS
    NAME         CURRENT

    V_V1        -1.076E-02
    V_V2        -8.529E-02
    V_V3         0.000E+00

    TOTAL POWER DISSIPATION   4.39E+00  WATTS

**** Param: R_R2.Value = 409.38989535697789
**** Param: C_C1.Value = 3.58047029023102m
**** Param: R_R3.Value = 1.16960009228308k
**** Param: R_R1.Value = 300.06535406247184
**** Param: C_C2.Value = 17.58936775139622
**** Param: C_C3.Value = 15.57528916287728p
**** Param: R_R5.Value = 66.40952040820652
**** Param: R_R6.Value = 1.93947410072945k
**** Param: R_R7.Value = 32.59636463742556
**** Param: D1N755(model).bv = 8.16045869319742

**** Command: doALL

**** 04/09/25 14:43:48 **** PSpice 24.1.0 (22 October 2024) *** ID# 0 ********

 ** Profile: "SCHEMATIC1-AC"  [ C:\Cadence\Pspice sim\mc_cascode-PSpiceFiles\SCHEMATIC1\AC.sim ] 


 ****     SMALL SIGNAL BIAS SOLUTION       TEMPERATURE =   27.000 DEG C

 ****     Monte Carlo run 248              


******************************************************************************



 NODE   VOLTAGE     NODE   VOLTAGE     NODE   VOLTAGE     NODE   VOLTAGE


(  OUT)   23.9410  (N01228)    2.9051 (N01430)    3.8675 (N01866)   12.0000     

(N01936)   50.0000 (N21518)    7.3392 (N22961)    8.1105 (N26201)    2.9051     

(N26542)    0.0000 (N39220)   50.0000 (N43174)    0.0000 




    VOLTAGE SOURCE CURRENTS
    NAME         CURRENT

    V_V1        -9.501E-03
    V_V2        -8.684E-02
    V_V3         0.000E+00

    TOTAL POWER DISSIPATION   4.46E+00  WATTS

**** Param: R_R2.Value = 391.23900836053861
**** Param: C_C1.Value = 3.29408825952940m
**** Param: R_R3.Value = 1.01438065660134k
**** Param: R_R1.Value = 304.45244799467133
**** Param: C_C2.Value = 270.46162297433398u
**** Param: C_C3.Value = 14.47039704580828p
**** Param: R_R5.Value = 67.62127945592670
**** Param: R_R6.Value = 1.74184490949660k
**** Param: R_R7.Value = 30.26666031614983
**** Param: D1N755(model).bv = 6.98612170781579

**** Command: doALL

**** 04/09/25 14:43:48 **** PSpice 24.1.0 (22 October 2024) *** ID# 0 ********

 ** Profile: "SCHEMATIC1-AC"  [ C:\Cadence\Pspice sim\mc_cascode-PSpiceFiles\SCHEMATIC1\AC.sim ] 


 ****     SMALL SIGNAL BIAS SOLUTION       TEMPERATURE =   27.000 DEG C

 ****     Monte Carlo run 249              


******************************************************************************



 NODE   VOLTAGE     NODE   VOLTAGE     NODE   VOLTAGE     NODE   VOLTAGE


(  OUT)   25.7080  (N01228)    2.4774 (N01430)    3.4292 (N01866)   12.0000     

(N01936)   50.0000 (N21518)    6.1830 (N22961)    6.9505 (N26201)    2.4774     

(N26542)    0.0000 (N39220)   50.0000 (N43174)    0.0000 




    VOLTAGE SOURCE CURRENTS
    NAME         CURRENT

    V_V1        -1.291E-02
    V_V2        -7.979E-02
    V_V3         0.000E+00

    TOTAL POWER DISSIPATION   4.14E+00  WATTS

**** Param: R_R2.Value = 388.96665705390268
**** Param: C_C1.Value = 3.16856196783349m
**** Param: R_R3.Value = 1.16549241248424k
**** Param: R_R1.Value = 299.44080115364710
**** Param: C_C2.Value = 310.11358989226972u
**** Param: C_C3.Value = 13.50366222113712p
**** Param: R_R5.Value = 64.85224133230800
**** Param: R_R6.Value = 1.75419324920664k
**** Param: R_R7.Value = 32.94591991371563
**** Param: D1N755(model).bv = 6.75119022186956

**** Command: doALL

**** 04/09/25 14:43:48 **** PSpice 24.1.0 (22 October 2024) *** ID# 0 ********

 ** Profile: "SCHEMATIC1-AC"  [ C:\Cadence\Pspice sim\mc_cascode-PSpiceFiles\SCHEMATIC1\AC.sim ] 


 ****     SMALL SIGNAL BIAS SOLUTION       TEMPERATURE =   27.000 DEG C

 ****     Monte Carlo run 250              


******************************************************************************



 NODE   VOLTAGE     NODE   VOLTAGE     NODE   VOLTAGE     NODE   VOLTAGE


(  OUT)   29.7880  (N01228)    2.2776 (N01430)    3.2051 (N01866)   12.0000     

(N01936)   50.0000 (N21518)    5.9591 (N22961)    6.7200 (N26201)    2.2776     

(N26542)    0.0000 (N39220)   50.0000 (N43174)    0.0000 




    VOLTAGE SOURCE CURRENTS
    NAME         CURRENT

    V_V1        -1.357E-02
    V_V2        -6.750E-02
    V_V3         0.000E+00

    TOTAL POWER DISSIPATION   3.54E+00  WATTS


**** Command: FINISH

**** 04/09/25 14:43:48 **** PSpice 24.1.0 (22 October 2024) *** ID# 0 ********

 ** Profile: "SCHEMATIC1-AC"  [ C:\Cadence\Pspice sim\mc_cascode-PSpiceFiles\SCHEMATIC1\AC.sim ] 


 ****     JOB STATISTICS SUMMARY


******************************************************************************



  Total job time (using Solver 1)   =        7.81
