
**** 03/30/25 22:04:35 **** PSpice 24.1.0 (22 October 2024) *** ID# 0 ********

 ** Profile: "Clip_bot-bias"  [ C:\Cadence\Pspice sim\hier_clip-pspicefiles\clip_bot\bias.sim ] 


 ****     CIRCUIT DESCRIPTION


******************************************************************************




** Creating circuit file "bias.cir" 
** WARNING: THIS AUTOMATICALLY GENERATED FILE MAY BE OVERWRITTEN BY SUBSEQUENT SIMULATIONS

*Libraries: 
* Profile Libraries :
* Local Libraries :
* From [PSPICE NETLIST] section of C:\Users\ROG\AppData\Roaming\SPB_Data\cdssetup\OrCAD_PSpice\24.1.0\PSpice.ini file:
.lib "nom.lib" 

*Analysis directives: 
.OPTIONS ADVCONV
.PROBE64 V(alias(*)) I(alias(*)) W(alias(*)) D(alias(*)) NOISE(alias(*)) 
.INC "..\Clip_bot.net" 



**** INCLUDING Clip_bot.net ****
* source HIER_CLIP
.EXTERNAL INPUT IN
.EXTERNAL OUTPUT MID
.EXTERNAL OUTPUT OUT
R_R1         IN MID  1k  
R_R2         MID VCC  1k  
R_R3         0 MID  1k  
R_R4         0 OUT  1k  
D_D1         MID VCC D1N3940 
D_D2         0 MID D1N3940 
C_C1         MID OUT  0.47u  
V_V1         VCC 0 5Vdc

**** RESUMING bias.cir ****
.END

ERROR(ORPSIM-15141): Less than 2 connections at node IN.
