
**** 02/21/25 12:46:21 **** PSpice 24.1.0 (22 October 2024) *** ID# 0 ********

 ** Profile: "SCHEMATIC1-Zener"  [ C:\Cadence\Pspice sim\Zener-PSpiceFiles\SCHEMATIC1\Zener.sim ] 


 ****     CIRCUIT DESCRIPTION


******************************************************************************




** Creating circuit file "Zener.cir" 
** WARNING: THIS AUTOMATICALLY GENERATED FILE MAY BE OVERWRITTEN BY SUBSEQUENT SIMULATIONS

*Libraries: 
* Profile Libraries :
* Local Libraries :
* From [PSPICE NETLIST] section of C:\Users\ROG\AppData\Roaming\SPB_Data\cdssetup\OrCAD_PSpice\24.1.0\PSpice.ini file:
.lib "nom.lib" 

*Analysis directives: 
.DC LIN V_V1 0 10 1 
.STEP LIN V_V1 0 10 1 
.OPTIONS ADVCONV
.PROBE64 V(alias(*)) I(alias(*)) W(alias(*)) D(alias(*)) NOISE(alias(*)) 
.INC "..\SCHEMATIC1.net" 



**** INCLUDING SCHEMATIC1.net ****
* source ZENER
V_V1         N00145 0 0Vdc
R_R2         N00145 N00152  10 TC=0,0 
D_D1         0 N00152 D1N750 

**** RESUMING Zener.cir ****
.END


ERROR(ORPSIM-15051): A device may appear in .DC and .STEP commands only once
