
**** 02/24/25 16:43:37 **** PSpice 24.1.0 (22 October 2024) *** ID# 0 ********

 ** Profile: "SCHEMATIC1-Zener"  [ C:\Cadence\Pspice sim\zener-pspicefiles\schematic1\zener.sim ] 


 ****     CIRCUIT DESCRIPTION


******************************************************************************




** Creating circuit file "Zener.cir" 
** WARNING: THIS AUTOMATICALLY GENERATED FILE MAY BE OVERWRITTEN BY SUBSEQUENT SIMULATIONS

*Libraries: 
* Profile Libraries :
* Local Libraries :
.LIB "../../../zener-pspicefiles/zener.lib" 
* From [PSPICE NETLIST] section of C:\Users\ROG\AppData\Roaming\SPB_Data\cdssetup\OrCAD_PSpice\24.1.0\PSpice.ini file:
.lib "nom.lib" 

*Analysis directives: 
.DC LIN V_V1 0 10 1 
.OPTIONS ADVCONV
.PROBE64 V(alias(*)) I(alias(*)) W(alias(*)) D(alias(*)) NOISE(alias(*)) 
.INC "..\SCHEMATIC1.net" 



**** INCLUDING SCHEMATIC1.net ****
* source ZENER
V_V1         N00145 0 10V
R_R2         N00145 N00152  10 TC=0,0 
D_D1         0 N00152 D1N750 

**** RESUMING Zener.cir ****
.END

INFO(ORPSIM-15423): Unable to find index file zener.ind for library file zener.lib.

INFO(ORPSIM-15422): Making new index file zener.ind for library file zener.lib.

Index has 1 entries from 1 file(s).

**** 02/24/25 16:43:37 **** PSpice 24.1.0 (22 October 2024) *** ID# 0 ********

 ** Profile: "SCHEMATIC1-Zener"  [ C:\Cadence\Pspice sim\zener-pspicefiles\schematic1\zener.sim ] 


 ****     Diode MODEL PARAMETERS


******************************************************************************




               D1N750          
          IS  880.500000E-18 
         ISR    1.859000E-09 
          BV    8            
         IBV     .020245     
         NBV    1.6989       
        IBVL    1.955600E-03 
        NBVL   14.976        
          RS     .25         
         CJO  175.000000E-12 
          VJ     .75         
           M     .5516       
        TBV1  -21.277000E-06 



          JOB CONCLUDED

**** 02/24/25 16:43:37 **** PSpice 24.1.0 (22 October 2024) *** ID# 0 ********

 ** Profile: "SCHEMATIC1-Zener"  [ C:\Cadence\Pspice sim\zener-pspicefiles\schematic1\zener.sim ] 


 ****     JOB STATISTICS SUMMARY


******************************************************************************



  Total job time (using Solver 1)   =         .27
