
**** 01/15/25 13:20:38 **** PSpice 24.1.0 (22 October 2024) *** ID# 0 ********

 ** Profile: "SCHEMATIC1-bias"  [ C:\Cadence\Pspice sim\xformer_nonlin-pspicefiles\schematic1\bias.sim ] 


 ****     CIRCUIT DESCRIPTION


******************************************************************************




** Creating circuit file "bias.cir" 
** WARNING: THIS AUTOMATICALLY GENERATED FILE MAY BE OVERWRITTEN BY SUBSEQUENT SIMULATIONS

*Libraries: 
* Profile Libraries :
* Local Libraries :
* From [PSPICE NETLIST] section of C:\Users\ROG\AppData\Roaming\SPB_Data\cdssetup\OrCAD_PSpice\24.1.0\PSpice.ini file:
.lib "nom.lib" 

*Analysis directives: 
.TRAN  0 50m 0 0.1m 
.OPTIONS ADVCONV
.PROBE64 V(alias(*)) I(alias(*)) W(alias(*)) D(alias(*)) NOISE(alias(*)) 
.INC "..\SCHEMATIC1.net" 



**** INCLUDING SCHEMATIC1.net ****
* source XFORMER_NONLIN
V_V1         N00667 0  
+SIN 0 100 60 0 0 0
R_R1         N00677 N00667  0.125  
L_L2         0 CT  10uH  
L_L1         CT N00633  10uH  
R_R2         N00633 0  0.125  
L_L3         N00677 0  10uH  
R_R3         CT 0  0.125  
Kn_K1         L_L3 L_L1 
+ L_L2    0.99 Kbreak

**** RESUMING bias.cir ****
.END

**** 01/15/25 13:20:38 **** PSpice 24.1.0 (22 October 2024) *** ID# 0 ********

 ** Profile: "SCHEMATIC1-bias"  [ C:\Cadence\Pspice sim\xformer_nonlin-pspicefiles\schematic1\bias.sim ] 


 ****     Ferromagnetic Core MODEL PARAMETERS


******************************************************************************




               Kbreak          
       LEVEL    2            
        AREA     .65         
        PATH    8            
          MS    1.289600E+06 
           A    2.712800E+03 
           C     .25001      


**** 01/15/25 13:20:38 **** PSpice 24.1.0 (22 October 2024) *** ID# 0 ********

 ** Profile: "SCHEMATIC1-bias"  [ C:\Cadence\Pspice sim\xformer_nonlin-pspicefiles\schematic1\bias.sim ] 


 ****     INITIAL TRANSIENT SOLUTION       TEMPERATURE =   27.000 DEG C


******************************************************************************



 NODE   VOLTAGE     NODE   VOLTAGE     NODE   VOLTAGE     NODE   VOLTAGE


(   CT)    0.0000  (N00633)    0.0000 (N00667)    0.0000 (N00677)    0.0000 




    VOLTAGE SOURCE CURRENTS
    NAME         CURRENT

    V_V1         0.000E+00

    TOTAL POWER DISSIPATION   0.00E+00  WATTS



          JOB CONCLUDED

**** 01/15/25 13:20:38 **** PSpice 24.1.0 (22 October 2024) *** ID# 0 ********

 ** Profile: "SCHEMATIC1-bias"  [ C:\Cadence\Pspice sim\xformer_nonlin-pspicefiles\schematic1\bias.sim ] 


 ****     JOB STATISTICS SUMMARY


******************************************************************************



  Total job time (using Solver 1)   =         .02
